version 2
run WithOLSR-0-20191218-15:32:06-3974
attr configname WithOLSR
attr datetime 20191218-15:32:06
attr experiment WithOLSR
attr inifile test.ini
attr iterationvars ""
attr iterationvarsf ""
attr measurement ""
attr network uavsim.TestNetwork
attr processid 3974
attr repetition 0
attr replication #0
attr resultdir results
attr runnumber 0
attr seedset 0
param *.host[*].routingProtocol "\"OLSR\""
param **.constraintAreaMinZ 0m
param **.constraintAreaMaxZ 0m
param **.host[*].**.channelNumber 0
param **.attackHost[*].**.channelNumber 0
param *.radioMedium.pathLossType "\"NakagamiFading\""
param *.radioMedium.pathLoss.alpha 2.7
param *.attackHost[*].wlan[0].radio.displayCommunicationRange true
param **.wlan[0].radio.displayInterferenceRange false
param **.attackHost[*].mobilityType "\"StationaryMobility\""
param **.attackHost[*].mobility.initFromDisplayString false
param **.attackHost[0].mobility.initialX 200m
param **.attackHost[0].mobility.initialY 200m
param **.attackHost[1].mobility.initialX 300m
param **.attackHost[1].mobility.initialY 250m
param **.host[*].mobilityType "\"MassMobility\""
param **.host[*].mobility.initFromDisplayString false
param **.host[0].mobility.constraintAreaMinX 150m
param **.host[0].mobility.constraintAreaMinY 200m
param **.host[0].mobility.constraintAreaMaxX 250m
param **.host[0].mobility.constraintAreaMaxY 300m
param **.host[1].mobility.constraintAreaMinX 200m
param **.host[1].mobility.constraintAreaMinY 250m
param **.host[1].mobility.constraintAreaMaxX 300m
param **.host[1].mobility.constraintAreaMaxY 350m
param **.host[2].mobility.constraintAreaMinX 350m
param **.host[2].mobility.constraintAreaMinY 150m
param **.host[2].mobility.constraintAreaMaxX 450m
param **.host[2].mobility.constraintAreaMaxY 250m
param **.host[3].mobility.constraintAreaMinX 300m
param **.host[3].mobility.constraintAreaMinY 450m
param **.host[3].mobility.constraintAreaMaxX 500m
param **.host[3].mobility.constraintAreaMaxY 550m
param **.host[4].mobility.constraintAreaMinX 300m
param **.host[4].mobility.constraintAreaMinY 350m
param **.host[4].mobility.constraintAreaMaxX 500m
param **.host[4].mobility.constraintAreaMaxY 450m
param **.host[5].mobility.constraintAreaMinX 450m
param **.host[5].mobility.constraintAreaMinY 450m
param **.host[5].mobility.constraintAreaMaxX 550m
param **.host[5].mobility.constraintAreaMaxY 550m
param **.host[6].mobility.constraintAreaMinX 150m
param **.host[6].mobility.constraintAreaMinY 450m
param **.host[6].mobility.constraintAreaMaxX 250m
param **.host[6].mobility.constraintAreaMaxY 550m
param **.host[7].mobility.constraintAreaMinX 550m
param **.host[7].mobility.constraintAreaMinY 250m
param **.host[7].mobility.constraintAreaMaxX 650m
param **.host[7].mobility.constraintAreaMaxY 350m
param **.host[8].mobility.constraintAreaMinX 450m
param **.host[8].mobility.constraintAreaMinY 0m
param **.host[8].mobility.constraintAreaMaxX 550m
param **.host[8].mobility.constraintAreaMaxY 100m
param **.host[9].mobility.constraintAreaMinX 550m
param **.host[9].mobility.constraintAreaMinY 150m
param **.host[9].mobility.constraintAreaMaxX 650m
param **.host[9].mobility.constraintAreaMaxY 250m
param **.host[*].mobility.changeInterval "truncnormal(2s, 0.5s)"
param **.host[*].mobility.changeAngleBy "normal(0deg, 30deg)"
param **.host[*].mobility.speed "truncnormal(20mps, 8mps)"
param **.host[*].mobility.updateInterval 100ms
param **.pingTestApp[*].continuous true
param *.host[*].pingTestApp[*].destAddr "\"*\""
param *.host[*].pingTestApp[*].startTime uniform(0.001s,3s)
param *.host[*].pingTestApp[*].sendInterval 0.5s
param *.host[*].pingTestApp[*].printPing true
param *.host[*].numPingTestApps 1
param *.attackHost[*].numPingTestApps 1
param *.attackHost[*].pingTestApp[*].destAddr "\"*\""
param *.attackHost[*].pingTestApp[*].startTime uniform(0.001s,3s)
param *.attackHost[*].pingTestApp[*].sendInterval 0.0001s
param *.attackHost[*].pingTestApp[*].packetSize 500B
param **.wlan[*].bitrate 11Mbps
param *.host[*].wlan[*].radio.transmitter.power 100mW
param *.attackHost[*].wlan[*].radio.transmitter.power 100mW

scalar TestNetwork hackForCreateResultsFolder 0
scalar TestNetwork.radioMedium.propagation "Arrival computation count" 12
scalar TestNetwork.radioMedium "transmission count" 4
scalar TestNetwork.radioMedium "radio frame send count" 12
scalar TestNetwork.radioMedium "reception computation count" 9
scalar TestNetwork.radioMedium "interference computation count" 34
scalar TestNetwork.radioMedium "reception decision computation count" 9
scalar TestNetwork.radioMedium "listening decision computation count" 16
scalar TestNetwork.radioMedium "reception cache hit" 85.714285714286
attr unit %
scalar TestNetwork.radioMedium "interference cache hit" 66.666666666667
attr unit %
scalar TestNetwork.radioMedium "noise cache hit" 0
attr unit %
scalar TestNetwork.radioMedium "snir cache hit" 50
attr unit %
scalar TestNetwork.radioMedium "reception decision cache hit" 50
attr unit %
scalar TestNetwork.radioMedium "reception result cache hit" 0
attr unit %
scalar TestNetwork.host[0].networkLayer.arp failedARPResolution:count 0
attr title "ARP failed resolutions, count"
scalar TestNetwork.host[0].networkLayer.arp completedARPResolution:count 1
attr title "ARP completed resolutions, count"
scalar TestNetwork.host[0].networkLayer.arp initiatedARPResolution:count 0
attr title "ARP initiated resolutions, count"
scalar TestNetwork.host[0].networkLayer.arp sentReply:count 1
attr title "ARP replies sent, count"
scalar TestNetwork.host[0].networkLayer.arp sentReq:count 0
attr title "ARP request sent, count"
scalar TestNetwork.host[0].lo0.lo droppedPkBitError:count 0
attr interpolationmode none
attr source dropPkBitError
attr title "packets dropped/bit error, count"
scalar TestNetwork.host[0].lo0.lo droppedPkBitError:sum(packetBytes) 0
attr interpolationmode none
attr source dropPkBitError
attr title "packets dropped/bit error, sum(packetBytes)"
scalar TestNetwork.host[0].lo0.lo rcvdPkFromHL:count 2
attr interpolationmode none
attr source packetReceivedFromUpper
attr title "packets received from higher layer, count"
scalar TestNetwork.host[0].lo0.lo rcvdPkFromHL:sum(packetBytes) 168
attr interpolationmode none
attr source packetReceivedFromUpper
attr title "packets received from higher layer, sum(packetBytes)"
scalar TestNetwork.host[0].lo0.lo passedUpPk:count 2
attr interpolationmode none
attr source packetSentToUpper
attr title "packets passed to higher layer, count"
scalar TestNetwork.host[0].lo0.lo passedUpPk:sum(packetBytes) 168
attr interpolationmode none
attr source packetSentToUpper
attr title "packets passed to higher layer, sum(packetBytes)"
scalar TestNetwork.host[0].wlan[0].mac rcvdPkFromLL:count 2
attr interpolationmode none
attr source packetReceivedFromLower
attr title "packets received from lower layer, count"
scalar TestNetwork.host[0].wlan[0].mac rcvdPkFromLL:sum(packetBytes) 78
attr interpolationmode none
attr source packetReceivedFromLower
attr title "packets received from lower layer, sum(packetBytes)"
scalar TestNetwork.host[0].wlan[0].mac sentDownPk:count 1
attr interpolationmode none
attr source packetSentToLower
attr title "packets sent to lower layer, count"
scalar TestNetwork.host[0].wlan[0].mac sentDownPk:sum(packetBytes) 64
attr interpolationmode none
attr source packetSentToLower
attr title "packets sent to lower layer, sum(packetBytes)"
scalar TestNetwork.host[0].wlan[0].mac rcvdPkFromHL:count 1
attr interpolationmode none
attr source packetReceivedFromUpper
attr title "packets received from higher layer, count"
scalar TestNetwork.host[0].wlan[0].mac rcvdPkFromHL:sum(packetBytes) 64
attr interpolationmode none
attr source packetReceivedFromUpper
attr title "packets received from higher layer, sum(packetBytes)"
scalar TestNetwork.host[0].wlan[0].mac passedUpPk:count 1
attr interpolationmode none
attr source packetSentToUpper
attr title "packets passed to higher layer, count"
scalar TestNetwork.host[0].wlan[0].mac passedUpPk:sum(packetBytes) 64
attr interpolationmode none
attr source packetSentToUpper
attr title "packets passed to higher layer, sum(packetBytes)"
statistic TestNetwork.host[0].wlan[0].radio radioChannel:histogram
field count 1
field mean 0
field stddev -nan
field min 0
field max 0
field sum 0
field sqrsum 0
attr interpolationmode sample-hold
attr source radioChannelChanged
attr title "Radio channel, histogram"
bin	-inf	0
bin	-0.5	0
bin	-0.48	0
bin	-0.46	0
bin	-0.44	0
bin	-0.42	0
bin	-0.4	0
bin	-0.38	0
bin	-0.36	0
bin	-0.34	0
bin	-0.32	0
bin	-0.3	0
bin	-0.28	0
bin	-0.26	0
bin	-0.24	0
bin	-0.22	0
bin	-0.2	0
bin	-0.18	0
bin	-0.16	0
bin	-0.14	0
bin	-0.12	0
bin	-0.1	0
bin	-0.08	0
bin	-0.06	0
bin	-0.04	0
bin	-0.02	0
bin	0	1
bin	0.02	0
bin	0.04	0
bin	0.06	0
bin	0.08	0
bin	0.1	0
bin	0.12	0
bin	0.14	0
bin	0.16	0
bin	0.18	0
bin	0.2	0
bin	0.22	0
bin	0.24	0
bin	0.26	0
bin	0.28	0
bin	0.3	0
bin	0.32	0
bin	0.34	0
bin	0.36	0
bin	0.38	0
bin	0.4	0
bin	0.42	0
bin	0.44	0
bin	0.46	0
bin	0.48	0
bin	0.5	0
scalar TestNetwork.host[0].wlan[0].radio transmissionState:count 4
attr interpolationmode sample-hold
attr source transmissionStateChanged
attr title "Radio transmission state, count"
scalar TestNetwork.host[0].wlan[0].radio receptionState:count 7
attr interpolationmode sample-hold
attr source receptionStateChanged
attr title "Radio reception state, count"
scalar TestNetwork.host[0].wlan[0].radio radioMode:count 4
attr interpolationmode sample-hold
attr source radioModeChanged
attr title "Radio mode, count"
statistic TestNetwork.host[0].wlan[0].radio symbolErrorRate:histogram
field count 0
field mean -nan
field stddev -nan
field min -nan
field max -nan
field sum 0
field sqrsum 0
attr source symbolErrorRate
attr title "Symbol error rate, histogram"
bin	-inf	0
bin	0	0
bin	1	0
statistic TestNetwork.host[0].wlan[0].radio bitErrorRate:histogram
field count 0
field mean -nan
field stddev -nan
field min -nan
field max -nan
field sum 0
field sqrsum 0
attr source bitErrorRate
attr title "Bit error rate, histogram"
bin	-inf	0
bin	0	0
bin	1	0
statistic TestNetwork.host[0].wlan[0].radio packetErrorRate:histogram
field count 2
field mean 0
field stddev 0
field min 0
field max 0
field sum 0
field sqrsum 0
attr source packetErrorRate
attr title "Packet error rate, histogram"
bin	-inf	0
bin	-0.5	0
bin	-0.48	0
bin	-0.46	0
bin	-0.44	0
bin	-0.42	0
bin	-0.4	0
bin	-0.38	0
bin	-0.36	0
bin	-0.34	0
bin	-0.32	0
bin	-0.3	0
bin	-0.28	0
bin	-0.26	0
bin	-0.24	0
bin	-0.22	0
bin	-0.2	0
bin	-0.18	0
bin	-0.16	0
bin	-0.14	0
bin	-0.12	0
bin	-0.1	0
bin	-0.08	0
bin	-0.06	0
bin	-0.04	0
bin	-0.02	0
bin	0	2
bin	0.02	0
bin	0.04	0
bin	0.06	0
bin	0.08	0
bin	0.1	0
bin	0.12	0
bin	0.14	0
bin	0.16	0
bin	0.18	0
bin	0.2	0
bin	0.22	0
bin	0.24	0
bin	0.26	0
bin	0.28	0
bin	0.3	0
bin	0.32	0
bin	0.34	0
bin	0.36	0
bin	0.38	0
bin	0.4	0
bin	0.42	0
bin	0.44	0
bin	0.46	0
bin	0.48	0
bin	0.5	0
statistic TestNetwork.host[0].wlan[0].radio minSNIR:histogram
field count 2
field mean 2845.2267766532
field stddev 3364.3445229986
field min 466.27595019304
field max 5224.1776031133
field sum 5690.4535533063
field sqrsum 27509444.890599
attr source minSNIR
attr title "Min SNIR, histogram"
bin	-inf	0
bin	0	0
bin	100	0
bin	200	0
bin	300	0
bin	400	1
bin	500	0
bin	600	0
bin	700	0
bin	800	0
bin	900	0
bin	1000	0
bin	1100	0
bin	1200	0
bin	1300	0
bin	1400	0
bin	1500	0
bin	1600	0
bin	1700	0
bin	1800	0
bin	1900	0
bin	2000	0
bin	2100	0
bin	2200	0
bin	2300	0
bin	2400	0
bin	2500	0
bin	2600	0
bin	2700	0
bin	2800	0
bin	2900	0
bin	3000	0
bin	3100	0
bin	3200	0
bin	3300	0
bin	3400	0
bin	3500	0
bin	3600	0
bin	3700	0
bin	3800	0
bin	3900	0
bin	4000	0
bin	4100	0
bin	4200	0
bin	4300	0
bin	4400	0
bin	4500	0
bin	4600	0
bin	4700	0
bin	4800	0
bin	4900	0
bin	5000	0
bin	5100	0
bin	5200	1
bin	5300	0
bin	5400	0
bin	5500	0
bin	5600	0
bin	5700	0
bin	5800	0
bin	5900	0
bin	6000	0
bin	6100	0
bin	6200	0
bin	6300	0
bin	6400	0
bin	6500	0
scalar TestNetwork.host[0].pingTestApp[0] "Pings sent" 2
scalar TestNetwork.host[0].pingTestApp[0] "ping loss rate (%)" 50
scalar TestNetwork.host[0].pingTestApp[0] "ping out-of-order rate (%)" 0
scalar TestNetwork.host[0].pingTestApp[0] pingRxSeq:count 1
attr interpolationmode none
attr title "ping rx seq, count"
scalar TestNetwork.host[0].pingTestApp[0] pingTxSeq:count 2
attr interpolationmode none
attr title "ping tx seq, count"
scalar TestNetwork.host[0].pingTestApp[0] numOutOfOrderArrivals:last nan
attr interpolationmode none
attr title "ping out-of-order arrivals, last"
scalar TestNetwork.host[0].pingTestApp[0] numLost:last nan
attr interpolationmode none
attr title "pings lost, last"
statistic TestNetwork.host[0].pingTestApp[0] rtt:histogram
field count 0
field mean -nan
field stddev -nan
field min -nan
field max -nan
field sum 0
field sqrsum 0
attr interpolationmode none
attr title "ping round-trip time, histogram"
attr unit s
bin	-inf	0
bin	0	0
bin	1	0
scalar TestNetwork.host[1].networkLayer.arp failedARPResolution:count 0
attr title "ARP failed resolutions, count"
scalar TestNetwork.host[1].networkLayer.arp completedARPResolution:count 0
attr title "ARP completed resolutions, count"
scalar TestNetwork.host[1].networkLayer.arp initiatedARPResolution:count 0
attr title "ARP initiated resolutions, count"
scalar TestNetwork.host[1].networkLayer.arp sentReply:count 0
attr title "ARP replies sent, count"
scalar TestNetwork.host[1].networkLayer.arp sentReq:count 0
attr title "ARP request sent, count"
scalar TestNetwork.host[1].lo0.lo droppedPkBitError:count 0
attr interpolationmode none
attr source dropPkBitError
attr title "packets dropped/bit error, count"
scalar TestNetwork.host[1].lo0.lo droppedPkBitError:sum(packetBytes) 0
attr interpolationmode none
attr source dropPkBitError
attr title "packets dropped/bit error, sum(packetBytes)"
scalar TestNetwork.host[1].lo0.lo rcvdPkFromHL:count 0
attr interpolationmode none
attr source packetReceivedFromUpper
attr title "packets received from higher layer, count"
scalar TestNetwork.host[1].lo0.lo rcvdPkFromHL:sum(packetBytes) 0
attr interpolationmode none
attr source packetReceivedFromUpper
attr title "packets received from higher layer, sum(packetBytes)"
scalar TestNetwork.host[1].lo0.lo passedUpPk:count 0
attr interpolationmode none
attr source packetSentToUpper
attr title "packets passed to higher layer, count"
scalar TestNetwork.host[1].lo0.lo passedUpPk:sum(packetBytes) 0
attr interpolationmode none
attr source packetSentToUpper
attr title "packets passed to higher layer, sum(packetBytes)"
scalar TestNetwork.host[1].wlan[0].mac rcvdPkFromLL:count 3
attr interpolationmode none
attr source packetReceivedFromLower
attr title "packets received from lower layer, count"
scalar TestNetwork.host[1].wlan[0].mac rcvdPkFromLL:sum(packetBytes) 142
attr interpolationmode none
attr source packetReceivedFromLower
attr title "packets received from lower layer, sum(packetBytes)"
scalar TestNetwork.host[1].wlan[0].mac sentDownPk:count 0
attr interpolationmode none
attr source packetSentToLower
attr title "packets sent to lower layer, count"
scalar TestNetwork.host[1].wlan[0].mac sentDownPk:sum(packetBytes) 0
attr interpolationmode none
attr source packetSentToLower
attr title "packets sent to lower layer, sum(packetBytes)"
scalar TestNetwork.host[1].wlan[0].mac rcvdPkFromHL:count 0
attr interpolationmode none
attr source packetReceivedFromUpper
attr title "packets received from higher layer, count"
scalar TestNetwork.host[1].wlan[0].mac rcvdPkFromHL:sum(packetBytes) 0
attr interpolationmode none
attr source packetReceivedFromUpper
attr title "packets received from higher layer, sum(packetBytes)"
scalar TestNetwork.host[1].wlan[0].mac passedUpPk:count 1
attr interpolationmode none
attr source packetSentToUpper
attr title "packets passed to higher layer, count"
scalar TestNetwork.host[1].wlan[0].mac passedUpPk:sum(packetBytes) 64
attr interpolationmode none
attr source packetSentToUpper
attr title "packets passed to higher layer, sum(packetBytes)"
statistic TestNetwork.host[1].wlan[0].radio radioChannel:histogram
field count 1
field mean 0
field stddev -nan
field min 0
field max 0
field sum 0
field sqrsum 0
attr interpolationmode sample-hold
attr source radioChannelChanged
attr title "Radio channel, histogram"
bin	-inf	0
bin	-0.5	0
bin	-0.48	0
bin	-0.46	0
bin	-0.44	0
bin	-0.42	0
bin	-0.4	0
bin	-0.38	0
bin	-0.36	0
bin	-0.34	0
bin	-0.32	0
bin	-0.3	0
bin	-0.28	0
bin	-0.26	0
bin	-0.24	0
bin	-0.22	0
bin	-0.2	0
bin	-0.18	0
bin	-0.16	0
bin	-0.14	0
bin	-0.12	0
bin	-0.1	0
bin	-0.08	0
bin	-0.06	0
bin	-0.04	0
bin	-0.02	0
bin	0	1
bin	0.02	0
bin	0.04	0
bin	0.06	0
bin	0.08	0
bin	0.1	0
bin	0.12	0
bin	0.14	0
bin	0.16	0
bin	0.18	0
bin	0.2	0
bin	0.22	0
bin	0.24	0
bin	0.26	0
bin	0.28	0
bin	0.3	0
bin	0.32	0
bin	0.34	0
bin	0.36	0
bin	0.38	0
bin	0.4	0
bin	0.42	0
bin	0.44	0
bin	0.46	0
bin	0.48	0
bin	0.5	0
scalar TestNetwork.host[1].wlan[0].radio transmissionState:count 0
attr interpolationmode sample-hold
attr source transmissionStateChanged
attr title "Radio transmission state, count"
scalar TestNetwork.host[1].wlan[0].radio receptionState:count 7
attr interpolationmode sample-hold
attr source receptionStateChanged
attr title "Radio reception state, count"
scalar TestNetwork.host[1].wlan[0].radio radioMode:count 2
attr interpolationmode sample-hold
attr source radioModeChanged
attr title "Radio mode, count"
statistic TestNetwork.host[1].wlan[0].radio symbolErrorRate:histogram
field count 0
field mean -nan
field stddev -nan
field min -nan
field max -nan
field sum 0
field sqrsum 0
attr source symbolErrorRate
attr title "Symbol error rate, histogram"
bin	-inf	0
bin	0	0
bin	1	0
statistic TestNetwork.host[1].wlan[0].radio bitErrorRate:histogram
field count 0
field mean -nan
field stddev -nan
field min -nan
field max -nan
field sum 0
field sqrsum 0
attr source bitErrorRate
attr title "Bit error rate, histogram"
bin	-inf	0
bin	0	0
bin	1	0
statistic TestNetwork.host[1].wlan[0].radio packetErrorRate:histogram
field count 3
field mean 0
field stddev 0
field min 0
field max 0
field sum 0
field sqrsum 0
attr source packetErrorRate
attr title "Packet error rate, histogram"
bin	-inf	0
bin	-0.5	0
bin	-0.48	0
bin	-0.46	0
bin	-0.44	0
bin	-0.42	0
bin	-0.4	0
bin	-0.38	0
bin	-0.36	0
bin	-0.34	0
bin	-0.32	0
bin	-0.3	0
bin	-0.28	0
bin	-0.26	0
bin	-0.24	0
bin	-0.22	0
bin	-0.2	0
bin	-0.18	0
bin	-0.16	0
bin	-0.14	0
bin	-0.12	0
bin	-0.1	0
bin	-0.08	0
bin	-0.06	0
bin	-0.04	0
bin	-0.02	0
bin	0	3
bin	0.02	0
bin	0.04	0
bin	0.06	0
bin	0.08	0
bin	0.1	0
bin	0.12	0
bin	0.14	0
bin	0.16	0
bin	0.18	0
bin	0.2	0
bin	0.22	0
bin	0.24	0
bin	0.26	0
bin	0.28	0
bin	0.3	0
bin	0.32	0
bin	0.34	0
bin	0.36	0
bin	0.38	0
bin	0.4	0
bin	0.42	0
bin	0.44	0
bin	0.46	0
bin	0.48	0
bin	0.5	0
statistic TestNetwork.host[1].wlan[0].radio minSNIR:histogram
field count 3
field mean 307944.5484838
field stddev 512079.8661045
field min 4980.1320909508
field max 899182.61061444
field sum 923833.64545139
field sqrsum 808941113361.88
attr source minSNIR
attr title "Min SNIR, histogram"
bin	-inf	0
bin	0	2
bin	20000	0
bin	40000	0
bin	60000	0
bin	80000	0
bin	100000	0
bin	120000	0
bin	140000	0
bin	160000	0
bin	180000	0
bin	200000	0
bin	220000	0
bin	240000	0
bin	260000	0
bin	280000	0
bin	300000	0
bin	320000	0
bin	340000	0
bin	360000	0
bin	380000	0
bin	400000	0
bin	420000	0
bin	440000	0
bin	460000	0
bin	480000	0
bin	500000	0
bin	520000	0
bin	540000	0
bin	560000	0
bin	580000	0
bin	600000	0
bin	620000	0
bin	640000	0
bin	660000	0
bin	680000	0
bin	700000	0
bin	720000	0
bin	740000	0
bin	760000	0
bin	780000	0
bin	800000	0
bin	820000	0
bin	840000	0
bin	860000	0
bin	880000	1
bin	900000	0
bin	920000	0
bin	940000	0
bin	960000	0
bin	980000	0
bin	1000000	0
bin	1020000	0
bin	1040000	0
bin	1060000	0
bin	1080000	0
bin	1100000	0
bin	1120000	0
bin	1140000	0
scalar TestNetwork.host[1].pingTestApp[0] "Pings sent" 1
scalar TestNetwork.host[1].pingTestApp[0] "ping loss rate (%)" 100
scalar TestNetwork.host[1].pingTestApp[0] "ping out-of-order rate (%)" 0
scalar TestNetwork.host[1].pingTestApp[0] pingRxSeq:count 0
attr interpolationmode none
attr title "ping rx seq, count"
scalar TestNetwork.host[1].pingTestApp[0] pingTxSeq:count 1
attr interpolationmode none
attr title "ping tx seq, count"
scalar TestNetwork.host[1].pingTestApp[0] numOutOfOrderArrivals:last nan
attr interpolationmode none
attr title "ping out-of-order arrivals, last"
scalar TestNetwork.host[1].pingTestApp[0] numLost:last nan
attr interpolationmode none
attr title "pings lost, last"
statistic TestNetwork.host[1].pingTestApp[0] rtt:histogram
field count 0
field mean -nan
field stddev -nan
field min -nan
field max -nan
field sum 0
field sqrsum 0
attr interpolationmode none
attr title "ping round-trip time, histogram"
attr unit s
bin	-inf	0
bin	0	0
bin	1	0
scalar TestNetwork.attackHost[0].networkLayer.arp failedARPResolution:count 0
attr title "ARP failed resolutions, count"
scalar TestNetwork.attackHost[0].networkLayer.arp completedARPResolution:count 1
attr title "ARP completed resolutions, count"
scalar TestNetwork.attackHost[0].networkLayer.arp initiatedARPResolution:count 3
attr title "ARP initiated resolutions, count"
scalar TestNetwork.attackHost[0].networkLayer.arp sentReply:count 0
attr title "ARP replies sent, count"
scalar TestNetwork.attackHost[0].networkLayer.arp sentReq:count 3
attr title "ARP request sent, count"
scalar TestNetwork.attackHost[0].lo0.lo droppedPkBitError:count 0
attr interpolationmode none
attr source dropPkBitError
attr title "packets dropped/bit error, count"
scalar TestNetwork.attackHost[0].lo0.lo droppedPkBitError:sum(packetBytes) 0
attr interpolationmode none
attr source dropPkBitError
attr title "packets dropped/bit error, sum(packetBytes)"
scalar TestNetwork.attackHost[0].lo0.lo rcvdPkFromHL:count 6
attr interpolationmode none
attr source packetReceivedFromUpper
attr title "packets received from higher layer, count"
scalar TestNetwork.attackHost[0].lo0.lo rcvdPkFromHL:sum(packetBytes) 3168
attr interpolationmode none
attr source packetReceivedFromUpper
attr title "packets received from higher layer, sum(packetBytes)"
scalar TestNetwork.attackHost[0].lo0.lo passedUpPk:count 6
attr interpolationmode none
attr source packetSentToUpper
attr title "packets passed to higher layer, count"
scalar TestNetwork.attackHost[0].lo0.lo passedUpPk:sum(packetBytes) 3168
attr interpolationmode none
attr source packetSentToUpper
attr title "packets passed to higher layer, sum(packetBytes)"
scalar TestNetwork.attackHost[0].wlan[0].mac rcvdPkFromLL:count 1
attr interpolationmode none
attr source packetReceivedFromLower
attr title "packets received from lower layer, count"
scalar TestNetwork.attackHost[0].wlan[0].mac rcvdPkFromLL:sum(packetBytes) 64
attr interpolationmode none
attr source packetReceivedFromLower
attr title "packets received from lower layer, sum(packetBytes)"
scalar TestNetwork.attackHost[0].wlan[0].mac sentDownPk:count 3
attr interpolationmode none
attr source packetSentToLower
attr title "packets sent to lower layer, count"
scalar TestNetwork.attackHost[0].wlan[0].mac sentDownPk:sum(packetBytes) 142
attr interpolationmode none
attr source packetSentToLower
attr title "packets sent to lower layer, sum(packetBytes)"
scalar TestNetwork.attackHost[0].wlan[0].mac rcvdPkFromHL:count 7
attr interpolationmode none
attr source packetReceivedFromUpper
attr title "packets received from higher layer, count"
scalar TestNetwork.attackHost[0].wlan[0].mac rcvdPkFromHL:sum(packetBytes) 2448
attr interpolationmode none
attr source packetReceivedFromUpper
attr title "packets received from higher layer, sum(packetBytes)"
scalar TestNetwork.attackHost[0].wlan[0].mac passedUpPk:count 1
attr interpolationmode none
attr source packetSentToUpper
attr title "packets passed to higher layer, count"
scalar TestNetwork.attackHost[0].wlan[0].mac passedUpPk:sum(packetBytes) 64
attr interpolationmode none
attr source packetSentToUpper
attr title "packets passed to higher layer, sum(packetBytes)"
statistic TestNetwork.attackHost[0].wlan[0].radio radioChannel:histogram
field count 1
field mean 0
field stddev -nan
field min 0
field max 0
field sum 0
field sqrsum 0
attr interpolationmode sample-hold
attr source radioChannelChanged
attr title "Radio channel, histogram"
bin	-inf	0
bin	-0.5	0
bin	-0.48	0
bin	-0.46	0
bin	-0.44	0
bin	-0.42	0
bin	-0.4	0
bin	-0.38	0
bin	-0.36	0
bin	-0.34	0
bin	-0.32	0
bin	-0.3	0
bin	-0.28	0
bin	-0.26	0
bin	-0.24	0
bin	-0.22	0
bin	-0.2	0
bin	-0.18	0
bin	-0.16	0
bin	-0.14	0
bin	-0.12	0
bin	-0.1	0
bin	-0.08	0
bin	-0.06	0
bin	-0.04	0
bin	-0.02	0
bin	0	1
bin	0.02	0
bin	0.04	0
bin	0.06	0
bin	0.08	0
bin	0.1	0
bin	0.12	0
bin	0.14	0
bin	0.16	0
bin	0.18	0
bin	0.2	0
bin	0.22	0
bin	0.24	0
bin	0.26	0
bin	0.28	0
bin	0.3	0
bin	0.32	0
bin	0.34	0
bin	0.36	0
bin	0.38	0
bin	0.4	0
bin	0.42	0
bin	0.44	0
bin	0.46	0
bin	0.48	0
bin	0.5	0
scalar TestNetwork.attackHost[0].wlan[0].radio transmissionState:count 10
attr interpolationmode sample-hold
attr source transmissionStateChanged
attr title "Radio transmission state, count"
scalar TestNetwork.attackHost[0].wlan[0].radio receptionState:count 8
attr interpolationmode sample-hold
attr source receptionStateChanged
attr title "Radio reception state, count"
scalar TestNetwork.attackHost[0].wlan[0].radio radioMode:count 7
attr interpolationmode sample-hold
attr source radioModeChanged
attr title "Radio mode, count"
statistic TestNetwork.attackHost[0].wlan[0].radio symbolErrorRate:histogram
field count 0
field mean -nan
field stddev -nan
field min -nan
field max -nan
field sum 0
field sqrsum 0
attr source symbolErrorRate
attr title "Symbol error rate, histogram"
bin	-inf	0
bin	0	0
bin	1	0
statistic TestNetwork.attackHost[0].wlan[0].radio bitErrorRate:histogram
field count 0
field mean -nan
field stddev -nan
field min -nan
field max -nan
field sum 0
field sqrsum 0
attr source bitErrorRate
attr title "Bit error rate, histogram"
bin	-inf	0
bin	0	0
bin	1	0
statistic TestNetwork.attackHost[0].wlan[0].radio packetErrorRate:histogram
field count 1
field mean 0
field stddev -nan
field min 0
field max 0
field sum 0
field sqrsum 0
attr source packetErrorRate
attr title "Packet error rate, histogram"
bin	-inf	0
bin	-0.5	0
bin	-0.48	0
bin	-0.46	0
bin	-0.44	0
bin	-0.42	0
bin	-0.4	0
bin	-0.38	0
bin	-0.36	0
bin	-0.34	0
bin	-0.32	0
bin	-0.3	0
bin	-0.28	0
bin	-0.26	0
bin	-0.24	0
bin	-0.22	0
bin	-0.2	0
bin	-0.18	0
bin	-0.16	0
bin	-0.14	0
bin	-0.12	0
bin	-0.1	0
bin	-0.08	0
bin	-0.06	0
bin	-0.04	0
bin	-0.02	0
bin	0	1
bin	0.02	0
bin	0.04	0
bin	0.06	0
bin	0.08	0
bin	0.1	0
bin	0.12	0
bin	0.14	0
bin	0.16	0
bin	0.18	0
bin	0.2	0
bin	0.22	0
bin	0.24	0
bin	0.26	0
bin	0.28	0
bin	0.3	0
bin	0.32	0
bin	0.34	0
bin	0.36	0
bin	0.38	0
bin	0.4	0
bin	0.42	0
bin	0.44	0
bin	0.46	0
bin	0.48	0
bin	0.5	0
statistic TestNetwork.attackHost[0].wlan[0].radio minSNIR:histogram
field count 1
field mean 13357.699030534
field stddev -nan
field min 13357.699030534
field max 13357.699030534
field sum 13357.699030534
field sqrsum 178428123.39034
attr source minSNIR
attr title "Min SNIR, histogram"
bin	-inf	0
bin	13357.18	0
bin	13357.2	0
bin	13357.22	0
bin	13357.24	0
bin	13357.26	0
bin	13357.28	0
bin	13357.3	0
bin	13357.32	0
bin	13357.34	0
bin	13357.36	0
bin	13357.38	0
bin	13357.4	0
bin	13357.42	0
bin	13357.44	0
bin	13357.46	0
bin	13357.48	0
bin	13357.5	0
bin	13357.52	0
bin	13357.54	0
bin	13357.56	0
bin	13357.58	0
bin	13357.6	0
bin	13357.62	0
bin	13357.64	0
bin	13357.66	0
bin	13357.68	1
bin	13357.7	0
bin	13357.72	0
bin	13357.74	0
bin	13357.76	0
bin	13357.78	0
bin	13357.8	0
bin	13357.82	0
bin	13357.84	0
bin	13357.86	0
bin	13357.88	0
bin	13357.9	0
bin	13357.92	0
bin	13357.94	0
bin	13357.96	0
bin	13357.98	0
bin	13358	0
bin	13358.02	0
bin	13358.04	0
bin	13358.06	0
bin	13358.08	0
bin	13358.1	0
bin	13358.12	0
bin	13358.14	0
bin	13358.16	0
bin	13358.18	0
bin	13358.2	0
scalar TestNetwork.attackHost[0].pingTestApp[0] "Pings sent" 14
scalar TestNetwork.attackHost[0].pingTestApp[0] "ping loss rate (%)" 78.571428571429
scalar TestNetwork.attackHost[0].pingTestApp[0] "ping out-of-order rate (%)" 0
scalar TestNetwork.attackHost[0].pingTestApp[0] pingRxSeq:count 3
attr interpolationmode none
attr title "ping rx seq, count"
scalar TestNetwork.attackHost[0].pingTestApp[0] pingTxSeq:count 14
attr interpolationmode none
attr title "ping tx seq, count"
scalar TestNetwork.attackHost[0].pingTestApp[0] numOutOfOrderArrivals:last nan
attr interpolationmode none
attr title "ping out-of-order arrivals, last"
scalar TestNetwork.attackHost[0].pingTestApp[0] numLost:last 8
attr interpolationmode none
attr title "pings lost, last"
statistic TestNetwork.attackHost[0].pingTestApp[0] rtt:histogram
field count 0
field mean -nan
field stddev -nan
field min -nan
field max -nan
field sum 0
field sqrsum 0
attr interpolationmode none
attr title "ping round-trip time, histogram"
attr unit s
bin	-inf	0
bin	0	0
bin	1	0
scalar TestNetwork.attackHost[1].networkLayer.arp failedARPResolution:count 0
attr title "ARP failed resolutions, count"
scalar TestNetwork.attackHost[1].networkLayer.arp completedARPResolution:count 0
attr title "ARP completed resolutions, count"
scalar TestNetwork.attackHost[1].networkLayer.arp initiatedARPResolution:count 0
attr title "ARP initiated resolutions, count"
scalar TestNetwork.attackHost[1].networkLayer.arp sentReply:count 0
attr title "ARP replies sent, count"
scalar TestNetwork.attackHost[1].networkLayer.arp sentReq:count 0
attr title "ARP request sent, count"
scalar TestNetwork.attackHost[1].lo0.lo droppedPkBitError:count 0
attr interpolationmode none
attr source dropPkBitError
attr title "packets dropped/bit error, count"
scalar TestNetwork.attackHost[1].lo0.lo droppedPkBitError:sum(packetBytes) 0
attr interpolationmode none
attr source dropPkBitError
attr title "packets dropped/bit error, sum(packetBytes)"
scalar TestNetwork.attackHost[1].lo0.lo rcvdPkFromHL:count 0
attr interpolationmode none
attr source packetReceivedFromUpper
attr title "packets received from higher layer, count"
scalar TestNetwork.attackHost[1].lo0.lo rcvdPkFromHL:sum(packetBytes) 0
attr interpolationmode none
attr source packetReceivedFromUpper
attr title "packets received from higher layer, sum(packetBytes)"
scalar TestNetwork.attackHost[1].lo0.lo passedUpPk:count 0
attr interpolationmode none
attr source packetSentToUpper
attr title "packets passed to higher layer, count"
scalar TestNetwork.attackHost[1].lo0.lo passedUpPk:sum(packetBytes) 0
attr interpolationmode none
attr source packetSentToUpper
attr title "packets passed to higher layer, sum(packetBytes)"
scalar TestNetwork.attackHost[1].wlan[0].mac rcvdPkFromLL:count 3
attr interpolationmode none
attr source packetReceivedFromLower
attr title "packets received from lower layer, count"
scalar TestNetwork.attackHost[1].wlan[0].mac rcvdPkFromLL:sum(packetBytes) 142
attr interpolationmode none
attr source packetReceivedFromLower
attr title "packets received from lower layer, sum(packetBytes)"
scalar TestNetwork.attackHost[1].wlan[0].mac sentDownPk:count 0
attr interpolationmode none
attr source packetSentToLower
attr title "packets sent to lower layer, count"
scalar TestNetwork.attackHost[1].wlan[0].mac sentDownPk:sum(packetBytes) 0
attr interpolationmode none
attr source packetSentToLower
attr title "packets sent to lower layer, sum(packetBytes)"
scalar TestNetwork.attackHost[1].wlan[0].mac rcvdPkFromHL:count 0
attr interpolationmode none
attr source packetReceivedFromUpper
attr title "packets received from higher layer, count"
scalar TestNetwork.attackHost[1].wlan[0].mac rcvdPkFromHL:sum(packetBytes) 0
attr interpolationmode none
attr source packetReceivedFromUpper
attr title "packets received from higher layer, sum(packetBytes)"
scalar TestNetwork.attackHost[1].wlan[0].mac passedUpPk:count 1
attr interpolationmode none
attr source packetSentToUpper
attr title "packets passed to higher layer, count"
scalar TestNetwork.attackHost[1].wlan[0].mac passedUpPk:sum(packetBytes) 64
attr interpolationmode none
attr source packetSentToUpper
attr title "packets passed to higher layer, sum(packetBytes)"
statistic TestNetwork.attackHost[1].wlan[0].radio radioChannel:histogram
field count 1
field mean 0
field stddev -nan
field min 0
field max 0
field sum 0
field sqrsum 0
attr interpolationmode sample-hold
attr source radioChannelChanged
attr title "Radio channel, histogram"
bin	-inf	0
bin	-0.5	0
bin	-0.48	0
bin	-0.46	0
bin	-0.44	0
bin	-0.42	0
bin	-0.4	0
bin	-0.38	0
bin	-0.36	0
bin	-0.34	0
bin	-0.32	0
bin	-0.3	0
bin	-0.28	0
bin	-0.26	0
bin	-0.24	0
bin	-0.22	0
bin	-0.2	0
bin	-0.18	0
bin	-0.16	0
bin	-0.14	0
bin	-0.12	0
bin	-0.1	0
bin	-0.08	0
bin	-0.06	0
bin	-0.04	0
bin	-0.02	0
bin	0	1
bin	0.02	0
bin	0.04	0
bin	0.06	0
bin	0.08	0
bin	0.1	0
bin	0.12	0
bin	0.14	0
bin	0.16	0
bin	0.18	0
bin	0.2	0
bin	0.22	0
bin	0.24	0
bin	0.26	0
bin	0.28	0
bin	0.3	0
bin	0.32	0
bin	0.34	0
bin	0.36	0
bin	0.38	0
bin	0.4	0
bin	0.42	0
bin	0.44	0
bin	0.46	0
bin	0.48	0
bin	0.5	0
scalar TestNetwork.attackHost[1].wlan[0].radio transmissionState:count 0
attr interpolationmode sample-hold
attr source transmissionStateChanged
attr title "Radio transmission state, count"
scalar TestNetwork.attackHost[1].wlan[0].radio receptionState:count 7
attr interpolationmode sample-hold
attr source receptionStateChanged
attr title "Radio reception state, count"
scalar TestNetwork.attackHost[1].wlan[0].radio radioMode:count 2
attr interpolationmode sample-hold
attr source radioModeChanged
attr title "Radio mode, count"
statistic TestNetwork.attackHost[1].wlan[0].radio symbolErrorRate:histogram
field count 0
field mean -nan
field stddev -nan
field min -nan
field max -nan
field sum 0
field sqrsum 0
attr source symbolErrorRate
attr title "Symbol error rate, histogram"
bin	-inf	0
bin	0	0
bin	1	0
statistic TestNetwork.attackHost[1].wlan[0].radio bitErrorRate:histogram
field count 0
field mean -nan
field stddev -nan
field min -nan
field max -nan
field sum 0
field sqrsum 0
attr source bitErrorRate
attr title "Bit error rate, histogram"
bin	-inf	0
bin	0	0
bin	1	0
statistic TestNetwork.attackHost[1].wlan[0].radio packetErrorRate:histogram
field count 3
field mean 0
field stddev 0
field min 0
field max 0
field sum 0
field sqrsum 0
attr source packetErrorRate
attr title "Packet error rate, histogram"
bin	-inf	0
bin	-0.5	0
bin	-0.48	0
bin	-0.46	0
bin	-0.44	0
bin	-0.42	0
bin	-0.4	0
bin	-0.38	0
bin	-0.36	0
bin	-0.34	0
bin	-0.32	0
bin	-0.3	0
bin	-0.28	0
bin	-0.26	0
bin	-0.24	0
bin	-0.22	0
bin	-0.2	0
bin	-0.18	0
bin	-0.16	0
bin	-0.14	0
bin	-0.12	0
bin	-0.1	0
bin	-0.08	0
bin	-0.06	0
bin	-0.04	0
bin	-0.02	0
bin	0	3
bin	0.02	0
bin	0.04	0
bin	0.06	0
bin	0.08	0
bin	0.1	0
bin	0.12	0
bin	0.14	0
bin	0.16	0
bin	0.18	0
bin	0.2	0
bin	0.22	0
bin	0.24	0
bin	0.26	0
bin	0.28	0
bin	0.3	0
bin	0.32	0
bin	0.34	0
bin	0.36	0
bin	0.38	0
bin	0.4	0
bin	0.42	0
bin	0.44	0
bin	0.46	0
bin	0.48	0
bin	0.5	0
statistic TestNetwork.attackHost[1].wlan[0].radio minSNIR:histogram
field count 3
field mean 2222.0822341961
field stddev 1827.9104611484
field min 917.38531688643
field max 4311.2957245946
field sum 6666.2467025884
field sqrsum 21495461.674542
attr source minSNIR
attr title "Min SNIR, histogram"
bin	-inf	0
bin	0	0
bin	100	0
bin	200	0
bin	300	0
bin	400	0
bin	500	0
bin	600	0
bin	700	0
bin	800	0
bin	900	1
bin	1000	0
bin	1100	0
bin	1200	0
bin	1300	0
bin	1400	1
bin	1500	0
bin	1600	0
bin	1700	0
bin	1800	0
bin	1900	0
bin	2000	0
bin	2100	0
bin	2200	0
bin	2300	0
bin	2400	0
bin	2500	0
bin	2600	0
bin	2700	0
bin	2800	0
bin	2900	0
bin	3000	0
bin	3100	0
bin	3200	0
bin	3300	0
bin	3400	0
bin	3500	0
bin	3600	0
bin	3700	0
bin	3800	0
bin	3900	0
bin	4000	0
bin	4100	0
bin	4200	0
bin	4300	1
bin	4400	0
bin	4500	0
bin	4600	0
bin	4700	0
bin	4800	0
bin	4900	0
bin	5000	0
bin	5100	0
bin	5200	0
scalar TestNetwork.attackHost[1].pingTestApp[0] pingRxSeq:count 0
attr interpolationmode none
attr title "ping rx seq, count"
scalar TestNetwork.attackHost[1].pingTestApp[0] pingTxSeq:count 0
attr interpolationmode none
attr title "ping tx seq, count"
scalar TestNetwork.attackHost[1].pingTestApp[0] numOutOfOrderArrivals:last nan
attr interpolationmode none
attr title "ping out-of-order arrivals, last"
scalar TestNetwork.attackHost[1].pingTestApp[0] numLost:last nan
attr interpolationmode none
attr title "pings lost, last"
statistic TestNetwork.attackHost[1].pingTestApp[0] rtt:histogram
field count 0
field mean -nan
field stddev -nan
field min -nan
field max -nan
field sum 0
field sqrsum 0
attr interpolationmode none
attr title "ping round-trip time, histogram"
attr unit s
bin	-inf	0
bin	0	0
bin	1	0

