file 309955671 1575275076                                       
version 2
run General-0-20191202-09:23:36-16179
attr configname General
attr datetime 20191202-09:23:36
attr experiment General
attr inifile dos.ini
attr iterationvars ""
attr iterationvarsf ""
attr measurement ""
attr network uavsim.UAVNetwork
attr processid 16179
attr repetition 0
attr replication #0
attr resultdir results
attr runnumber 0
attr seedset 0
param **.wlan[*].typename "\"Ieee80211Nic\""
param **.wlan[*].mac.address "\"auto\""
param **.wlan[*].radioType "\"Ieee80211ScalarRadio\""
param **.wlan[*].radio.transmitter.power 100mW
param **.wlan[*].radio.receiver.sensitivity -85dBm
param **.wlan[*].radio.receiver.snirThreshold 4dB
param **.wlan[*].radio.displayCommunicationRange true
param **.attackHost[*].wlan[*].bitrate 2Mbps
param **.host[*].wlan[*].bitrate 2Mbps
param **.wlan[*].mac.maxQueueSize 14
param **.wlan[*].mac.rtsThresholdBytes 3000B
param **.wlan[*].mac.retryLimit 7
param **.wlan[*].mac.cwMinData 7
param *.radioMedium.pathLossType "\"NakagamiFading\""
param *.radioMedium.pathLoss.alpha 2
param **.host[*].routingProtocol "\"OLSR\""
param **.attackHost[*].mobilityType "\"StationaryMobility\""
param **.attackHost[*].mobility.initFromDisplayString false
param **.host[*].mobilityType "\"MassMobility\""
param **.host[*].mobility.initFromDisplayString false
param **.host[*].mobility.changeInterval "truncnormal(2s, 0.5s)"
param **.host[*].mobility.changeAngleBy "normal(0deg, 30deg)"
param **.host[*].mobility.speed "truncnormal(20mps, 8mps)"
param **.host[*].mobility.updateInterval 100ms
param **.mobility.constraintAreaMinZ 0m
param **.mobility.constraintAreaMaxZ 0m
param **.mobility.constraintAreaMinX 0m
param **.mobility.constraintAreaMinY 0m
param **.mobility.constraintAreaMaxX 400m
param **.mobility.constraintAreaMaxY 300m
param **.pingTestApp[*].continuous true
param *.host[*].numPingTestApps 1
param *.host[*].pingTestApp[0].startTime uniform(1s,5s)
param *.host[*].pingTestApp[0].printPing true
param *.host[*].pingTestApp[0].destAddr "\"*\""
param *.attackHost[*].numPingTestApps 1
param *.attackHost[*].pingTestApp[0].startTime uniform(1s,5s)
param *.attackHost[*].pingTestApp[0].destAddr "\"*\""

vector 0 UAVNetwork.host[0].wlan[0].radio radioMode:vector ETV
attr interpolationmode sample-hold
attr source radioModeChanged
attr title "Radio mode, vector"
vector 1 UAVNetwork.host[0].wlan[0].radio radioChannel:vector ETV
attr interpolationmode sample-hold
attr source radioChannelChanged
attr title "Radio channel, vector"
vector 2 UAVNetwork.host[1].wlan[0].radio radioMode:vector ETV
attr interpolationmode sample-hold
attr source radioModeChanged
attr title "Radio mode, vector"
vector 3 UAVNetwork.host[1].wlan[0].radio radioChannel:vector ETV
attr interpolationmode sample-hold
attr source radioChannelChanged
attr title "Radio channel, vector"
vector 4 UAVNetwork.host[2].wlan[0].radio radioMode:vector ETV
attr interpolationmode sample-hold
attr source radioModeChanged
attr title "Radio mode, vector"
vector 5 UAVNetwork.host[2].wlan[0].radio radioChannel:vector ETV
attr interpolationmode sample-hold
attr source radioChannelChanged
attr title "Radio channel, vector"
vector 6 UAVNetwork.host[3].wlan[0].radio radioMode:vector ETV
attr interpolationmode sample-hold
attr source radioModeChanged
attr title "Radio mode, vector"
vector 7 UAVNetwork.host[3].wlan[0].radio radioChannel:vector ETV
attr interpolationmode sample-hold
attr source radioChannelChanged
attr title "Radio channel, vector"
vector 8 UAVNetwork.host[4].wlan[0].radio radioMode:vector ETV
attr interpolationmode sample-hold
attr source radioModeChanged
attr title "Radio mode, vector"
vector 9 UAVNetwork.host[4].wlan[0].radio radioChannel:vector ETV
attr interpolationmode sample-hold
attr source radioChannelChanged
attr title "Radio channel, vector"
vector 10 UAVNetwork.host[5].wlan[0].radio radioMode:vector ETV
attr interpolationmode sample-hold
attr source radioModeChanged
attr title "Radio mode, vector"
vector 11 UAVNetwork.host[5].wlan[0].radio radioChannel:vector ETV
attr interpolationmode sample-hold
attr source radioChannelChanged
attr title "Radio channel, vector"
vector 12 UAVNetwork.host[6].wlan[0].radio radioMode:vector ETV
attr interpolationmode sample-hold
attr source radioModeChanged
attr title "Radio mode, vector"
vector 13 UAVNetwork.host[6].wlan[0].radio radioChannel:vector ETV
attr interpolationmode sample-hold
attr source radioChannelChanged
attr title "Radio channel, vector"
vector 14 UAVNetwork.host[7].wlan[0].radio radioMode:vector ETV
attr interpolationmode sample-hold
attr source radioModeChanged
attr title "Radio mode, vector"
vector 15 UAVNetwork.host[7].wlan[0].radio radioChannel:vector ETV
attr interpolationmode sample-hold
attr source radioChannelChanged
attr title "Radio channel, vector"
vector 16 UAVNetwork.attackHost[0].wlan[0].radio radioMode:vector ETV
attr interpolationmode sample-hold
attr source radioModeChanged
attr title "Radio mode, vector"
vector 17 UAVNetwork.attackHost[0].wlan[0].radio radioChannel:vector ETV
attr interpolationmode sample-hold
attr source radioChannelChanged
attr title "Radio channel, vector"
vector 18 UAVNetwork.attackHost[1].wlan[0].radio radioMode:vector ETV
attr interpolationmode sample-hold
attr source radioModeChanged
attr title "Radio mode, vector"
vector 19 UAVNetwork.attackHost[1].wlan[0].radio radioChannel:vector ETV
attr interpolationmode sample-hold
attr source radioChannelChanged
attr title "Radio channel, vector"
vector 20 UAVNetwork.attackHost[2].wlan[0].radio radioMode:vector ETV
attr interpolationmode sample-hold
attr source radioModeChanged
attr title "Radio mode, vector"
vector 21 UAVNetwork.attackHost[2].wlan[0].radio radioChannel:vector ETV
attr interpolationmode sample-hold
attr source radioChannelChanged
attr title "Radio channel, vector"
vector 22 UAVNetwork.host[0].wlan[0].radio receptionState:vector ETV
attr interpolationmode sample-hold
attr source receptionStateChanged
attr title "Radio reception state, vector"
vector 23 UAVNetwork.host[1].wlan[0].radio receptionState:vector ETV
attr interpolationmode sample-hold
attr source receptionStateChanged
attr title "Radio reception state, vector"
vector 24 UAVNetwork.host[2].wlan[0].radio receptionState:vector ETV
attr interpolationmode sample-hold
attr source receptionStateChanged
attr title "Radio reception state, vector"
vector 25 UAVNetwork.host[3].wlan[0].radio receptionState:vector ETV
attr interpolationmode sample-hold
attr source receptionStateChanged
attr title "Radio reception state, vector"
vector 26 UAVNetwork.host[4].wlan[0].radio receptionState:vector ETV
attr interpolationmode sample-hold
attr source receptionStateChanged
attr title "Radio reception state, vector"
vector 27 UAVNetwork.host[5].wlan[0].radio receptionState:vector ETV
attr interpolationmode sample-hold
attr source receptionStateChanged
attr title "Radio reception state, vector"
vector 28 UAVNetwork.host[6].wlan[0].radio receptionState:vector ETV
attr interpolationmode sample-hold
attr source receptionStateChanged
attr title "Radio reception state, vector"
vector 29 UAVNetwork.host[7].wlan[0].radio receptionState:vector ETV
attr interpolationmode sample-hold
attr source receptionStateChanged
attr title "Radio reception state, vector"
vector 30 UAVNetwork.attackHost[0].wlan[0].radio receptionState:vector ETV
attr interpolationmode sample-hold
attr source receptionStateChanged
attr title "Radio reception state, vector"
vector 31 UAVNetwork.attackHost[1].wlan[0].radio receptionState:vector ETV
attr interpolationmode sample-hold
attr source receptionStateChanged
attr title "Radio reception state, vector"
vector 32 UAVNetwork.attackHost[2].wlan[0].radio receptionState:vector ETV
attr interpolationmode sample-hold
attr source receptionStateChanged
attr title "Radio reception state, vector"
vector 33 UAVNetwork.host[0].wlan[0].mac.dcf.channelAccess.contention state:vector ETV
attr interpolationmode none
attr source stateChanged
attr title "contention state, vector"
vector 34 UAVNetwork.host[0].wlan[0].mac.hcf.edca.edcaf[0].contention state:vector ETV
attr interpolationmode none
attr source stateChanged
attr title "contention state, vector"
vector 35 UAVNetwork.host[0].wlan[0].mac.hcf.edca.edcaf[1].contention state:vector ETV
attr interpolationmode none
attr source stateChanged
attr title "contention state, vector"
vector 36 UAVNetwork.host[0].wlan[0].mac.hcf.edca.edcaf[2].contention state:vector ETV
attr interpolationmode none
attr source stateChanged
attr title "contention state, vector"
vector 37 UAVNetwork.host[0].wlan[0].mac.hcf.edca.edcaf[3].contention state:vector ETV
attr interpolationmode none
attr source stateChanged
attr title "contention state, vector"
vector 38 UAVNetwork.host[1].wlan[0].mac.dcf.channelAccess.contention state:vector ETV
attr interpolationmode none
attr source stateChanged
attr title "contention state, vector"
vector 39 UAVNetwork.host[1].wlan[0].mac.hcf.edca.edcaf[0].contention state:vector ETV
attr interpolationmode none
attr source stateChanged
attr title "contention state, vector"
vector 40 UAVNetwork.host[1].wlan[0].mac.hcf.edca.edcaf[1].contention state:vector ETV
attr interpolationmode none
attr source stateChanged
attr title "contention state, vector"
vector 41 UAVNetwork.host[1].wlan[0].mac.hcf.edca.edcaf[2].contention state:vector ETV
attr interpolationmode none
attr source stateChanged
attr title "contention state, vector"
vector 42 UAVNetwork.host[1].wlan[0].mac.hcf.edca.edcaf[3].contention state:vector ETV
attr interpolationmode none
attr source stateChanged
attr title "contention state, vector"
vector 43 UAVNetwork.host[2].wlan[0].mac.dcf.channelAccess.contention state:vector ETV
attr interpolationmode none
attr source stateChanged
attr title "contention state, vector"
vector 44 UAVNetwork.host[2].wlan[0].mac.hcf.edca.edcaf[0].contention state:vector ETV
attr interpolationmode none
attr source stateChanged
attr title "contention state, vector"
vector 45 UAVNetwork.host[2].wlan[0].mac.hcf.edca.edcaf[1].contention state:vector ETV
attr interpolationmode none
attr source stateChanged
attr title "contention state, vector"
vector 46 UAVNetwork.host[2].wlan[0].mac.hcf.edca.edcaf[2].contention state:vector ETV
attr interpolationmode none
attr source stateChanged
attr title "contention state, vector"
vector 47 UAVNetwork.host[2].wlan[0].mac.hcf.edca.edcaf[3].contention state:vector ETV
attr interpolationmode none
attr source stateChanged
attr title "contention state, vector"
vector 48 UAVNetwork.host[3].wlan[0].mac.dcf.channelAccess.contention state:vector ETV
attr interpolationmode none
attr source stateChanged
attr title "contention state, vector"
vector 49 UAVNetwork.host[3].wlan[0].mac.hcf.edca.edcaf[0].contention state:vector ETV
attr interpolationmode none
attr source stateChanged
attr title "contention state, vector"
vector 50 UAVNetwork.host[3].wlan[0].mac.hcf.edca.edcaf[1].contention state:vector ETV
attr interpolationmode none
attr source stateChanged
attr title "contention state, vector"
vector 51 UAVNetwork.host[3].wlan[0].mac.hcf.edca.edcaf[2].contention state:vector ETV
attr interpolationmode none
attr source stateChanged
attr title "contention state, vector"
vector 52 UAVNetwork.host[3].wlan[0].mac.hcf.edca.edcaf[3].contention state:vector ETV
attr interpolationmode none
attr source stateChanged
attr title "contention state, vector"
vector 53 UAVNetwork.host[4].wlan[0].mac.dcf.channelAccess.contention state:vector ETV
attr interpolationmode none
attr source stateChanged
attr title "contention state, vector"
vector 54 UAVNetwork.host[4].wlan[0].mac.hcf.edca.edcaf[0].contention state:vector ETV
attr interpolationmode none
attr source stateChanged
attr title "contention state, vector"
vector 55 UAVNetwork.host[4].wlan[0].mac.hcf.edca.edcaf[1].contention state:vector ETV
attr interpolationmode none
attr source stateChanged
attr title "contention state, vector"
vector 56 UAVNetwork.host[4].wlan[0].mac.hcf.edca.edcaf[2].contention state:vector ETV
attr interpolationmode none
attr source stateChanged
attr title "contention state, vector"
vector 57 UAVNetwork.host[4].wlan[0].mac.hcf.edca.edcaf[3].contention state:vector ETV
attr interpolationmode none
attr source stateChanged
attr title "contention state, vector"
vector 58 UAVNetwork.host[5].wlan[0].mac.dcf.channelAccess.contention state:vector ETV
attr interpolationmode none
attr source stateChanged
attr title "contention state, vector"
vector 59 UAVNetwork.host[5].wlan[0].mac.hcf.edca.edcaf[0].contention state:vector ETV
attr interpolationmode none
attr source stateChanged
attr title "contention state, vector"
vector 60 UAVNetwork.host[5].wlan[0].mac.hcf.edca.edcaf[1].contention state:vector ETV
attr interpolationmode none
attr source stateChanged
attr title "contention state, vector"
vector 61 UAVNetwork.host[5].wlan[0].mac.hcf.edca.edcaf[2].contention state:vector ETV
attr interpolationmode none
attr source stateChanged
attr title "contention state, vector"
vector 62 UAVNetwork.host[5].wlan[0].mac.hcf.edca.edcaf[3].contention state:vector ETV
attr interpolationmode none
attr source stateChanged
attr title "contention state, vector"
vector 63 UAVNetwork.host[6].wlan[0].mac.dcf.channelAccess.contention state:vector ETV
attr interpolationmode none
attr source stateChanged
attr title "contention state, vector"
vector 64 UAVNetwork.host[6].wlan[0].mac.hcf.edca.edcaf[0].contention state:vector ETV
attr interpolationmode none
attr source stateChanged
attr title "contention state, vector"
vector 65 UAVNetwork.host[6].wlan[0].mac.hcf.edca.edcaf[1].contention state:vector ETV
attr interpolationmode none
attr source stateChanged
attr title "contention state, vector"
vector 66 UAVNetwork.host[6].wlan[0].mac.hcf.edca.edcaf[2].contention state:vector ETV
attr interpolationmode none
attr source stateChanged
attr title "contention state, vector"
vector 67 UAVNetwork.host[6].wlan[0].mac.hcf.edca.edcaf[3].contention state:vector ETV
attr interpolationmode none
attr source stateChanged
attr title "contention state, vector"
vector 68 UAVNetwork.host[7].wlan[0].mac.dcf.channelAccess.contention state:vector ETV
attr interpolationmode none
attr source stateChanged
attr title "contention state, vector"
vector 69 UAVNetwork.host[7].wlan[0].mac.hcf.edca.edcaf[0].contention state:vector ETV
attr interpolationmode none
attr source stateChanged
attr title "contention state, vector"
vector 70 UAVNetwork.host[7].wlan[0].mac.hcf.edca.edcaf[1].contention state:vector ETV
attr interpolationmode none
attr source stateChanged
attr title "contention state, vector"
vector 71 UAVNetwork.host[7].wlan[0].mac.hcf.edca.edcaf[2].contention state:vector ETV
attr interpolationmode none
attr source stateChanged
attr title "contention state, vector"
vector 72 UAVNetwork.host[7].wlan[0].mac.hcf.edca.edcaf[3].contention state:vector ETV
attr interpolationmode none
attr source stateChanged
attr title "contention state, vector"
vector 73 UAVNetwork.attackHost[0].wlan[0].mac.dcf.channelAccess.contention state:vector ETV
attr interpolationmode none
attr source stateChanged
attr title "contention state, vector"
vector 74 UAVNetwork.attackHost[0].wlan[0].mac.hcf.edca.edcaf[0].contention state:vector ETV
attr interpolationmode none
attr source stateChanged
attr title "contention state, vector"
vector 75 UAVNetwork.attackHost[0].wlan[0].mac.hcf.edca.edcaf[1].contention state:vector ETV
attr interpolationmode none
attr source stateChanged
attr title "contention state, vector"
vector 76 UAVNetwork.attackHost[0].wlan[0].mac.hcf.edca.edcaf[2].contention state:vector ETV
attr interpolationmode none
attr source stateChanged
attr title "contention state, vector"
vector 77 UAVNetwork.attackHost[0].wlan[0].mac.hcf.edca.edcaf[3].contention state:vector ETV
attr interpolationmode none
attr source stateChanged
attr title "contention state, vector"
vector 78 UAVNetwork.attackHost[1].wlan[0].mac.dcf.channelAccess.contention state:vector ETV
attr interpolationmode none
attr source stateChanged
attr title "contention state, vector"
vector 79 UAVNetwork.attackHost[1].wlan[0].mac.hcf.edca.edcaf[0].contention state:vector ETV
attr interpolationmode none
attr source stateChanged
attr title "contention state, vector"
vector 80 UAVNetwork.attackHost[1].wlan[0].mac.hcf.edca.edcaf[1].contention state:vector ETV
attr interpolationmode none
attr source stateChanged
attr title "contention state, vector"
vector 81 UAVNetwork.attackHost[1].wlan[0].mac.hcf.edca.edcaf[2].contention state:vector ETV
attr interpolationmode none
attr source stateChanged
attr title "contention state, vector"
vector 82 UAVNetwork.attackHost[1].wlan[0].mac.hcf.edca.edcaf[3].contention state:vector ETV
attr interpolationmode none
attr source stateChanged
attr title "contention state, vector"
vector 83 UAVNetwork.attackHost[2].wlan[0].mac.dcf.channelAccess.contention state:vector ETV
attr interpolationmode none
attr source stateChanged
attr title "contention state, vector"
vector 84 UAVNetwork.attackHost[2].wlan[0].mac.hcf.edca.edcaf[0].contention state:vector ETV
attr interpolationmode none
attr source stateChanged
attr title "contention state, vector"
vector 85 UAVNetwork.attackHost[2].wlan[0].mac.hcf.edca.edcaf[1].contention state:vector ETV
attr interpolationmode none
attr source stateChanged
attr title "contention state, vector"
vector 86 UAVNetwork.attackHost[2].wlan[0].mac.hcf.edca.edcaf[2].contention state:vector ETV
attr interpolationmode none
attr source stateChanged
attr title "contention state, vector"
vector 87 UAVNetwork.attackHost[2].wlan[0].mac.hcf.edca.edcaf[3].contention state:vector ETV
attr interpolationmode none
attr source stateChanged
attr title "contention state, vector"
vector 88 UAVNetwork.host[3].wlan[0].mac rcvdPkFromHL:vector(packetBytes) ETV
attr interpolationmode none
attr source packetReceivedFromUpper
attr title "packets received from higher layer, vector(packetBytes)"
vector 89 UAVNetwork.host[3].wlan[0].mac sentDownPk:vector(packetBytes) ETV
attr interpolationmode none
attr source packetSentToLower
attr title "packets sent to lower layer, vector(packetBytes)"
vector 90 UAVNetwork.host[3].wlan[0].radio transmissionState:vector ETV
attr interpolationmode sample-hold
attr source transmissionStateChanged
attr title "Radio transmission state, vector"
vector 91 UAVNetwork.host[1].wlan[0].mac rcvdPkFromLL:vector(packetBytes) ETV
attr interpolationmode none
attr source packetReceivedFromLower
attr title "packets received from lower layer, vector(packetBytes)"
vector 92 UAVNetwork.host[1].wlan[0].mac passedUpPk:vector(packetBytes) ETV
attr interpolationmode none
attr source packetSentToUpper
attr title "packets passed to higher layer, vector(packetBytes)"
vector 93 UAVNetwork.host[5].wlan[0].mac rcvdPkFromLL:vector(packetBytes) ETV
attr interpolationmode none
attr source packetReceivedFromLower
attr title "packets received from lower layer, vector(packetBytes)"
vector 94 UAVNetwork.host[5].wlan[0].mac passedUpPk:vector(packetBytes) ETV
attr interpolationmode none
attr source packetSentToUpper
attr title "packets passed to higher layer, vector(packetBytes)"
vector 95 UAVNetwork.host[2].wlan[0].mac rcvdPkFromLL:vector(packetBytes) ETV
attr interpolationmode none
attr source packetReceivedFromLower
attr title "packets received from lower layer, vector(packetBytes)"
vector 96 UAVNetwork.host[2].wlan[0].mac passedUpPk:vector(packetBytes) ETV
attr interpolationmode none
attr source packetSentToUpper
attr title "packets passed to higher layer, vector(packetBytes)"
vector 97 UAVNetwork.host[7].wlan[0].mac rcvdPkFromLL:vector(packetBytes) ETV
attr interpolationmode none
attr source packetReceivedFromLower
attr title "packets received from lower layer, vector(packetBytes)"
vector 98 UAVNetwork.host[7].wlan[0].mac passedUpPk:vector(packetBytes) ETV
attr interpolationmode none
attr source packetSentToUpper
attr title "packets passed to higher layer, vector(packetBytes)"
vector 99 UAVNetwork.attackHost[1].wlan[0].mac rcvdPkFromLL:vector(packetBytes) ETV
attr interpolationmode none
attr source packetReceivedFromLower
attr title "packets received from lower layer, vector(packetBytes)"
vector 100 UAVNetwork.attackHost[1].wlan[0].mac passedUpPk:vector(packetBytes) ETV
attr interpolationmode none
attr source packetSentToUpper
attr title "packets passed to higher layer, vector(packetBytes)"
vector 101 UAVNetwork.attackHost[0].wlan[0].mac rcvdPkFromLL:vector(packetBytes) ETV
attr interpolationmode none
attr source packetReceivedFromLower
attr title "packets received from lower layer, vector(packetBytes)"
vector 102 UAVNetwork.attackHost[0].wlan[0].mac passedUpPk:vector(packetBytes) ETV
attr interpolationmode none
attr source packetSentToUpper
attr title "packets passed to higher layer, vector(packetBytes)"
vector 103 UAVNetwork.host[6].wlan[0].mac rcvdPkFromLL:vector(packetBytes) ETV
attr interpolationmode none
attr source packetReceivedFromLower
attr title "packets received from lower layer, vector(packetBytes)"
vector 104 UAVNetwork.host[6].wlan[0].mac passedUpPk:vector(packetBytes) ETV
attr interpolationmode none
attr source packetSentToUpper
attr title "packets passed to higher layer, vector(packetBytes)"
vector 105 UAVNetwork.attackHost[2].wlan[0].mac rcvdPkFromLL:vector(packetBytes) ETV
attr interpolationmode none
attr source packetReceivedFromLower
attr title "packets received from lower layer, vector(packetBytes)"
vector 106 UAVNetwork.attackHost[2].wlan[0].mac passedUpPk:vector(packetBytes) ETV
attr interpolationmode none
attr source packetSentToUpper
attr title "packets passed to higher layer, vector(packetBytes)"
vector 107 UAVNetwork.host[4].wlan[0].mac rcvdPkFromLL:vector(packetBytes) ETV
attr interpolationmode none
attr source packetReceivedFromLower
attr title "packets received from lower layer, vector(packetBytes)"
vector 108 UAVNetwork.host[4].wlan[0].mac passedUpPk:vector(packetBytes) ETV
attr interpolationmode none
attr source packetSentToUpper
attr title "packets passed to higher layer, vector(packetBytes)"
vector 109 UAVNetwork.host[0].wlan[0].mac rcvdPkFromLL:vector(packetBytes) ETV
attr interpolationmode none
attr source packetReceivedFromLower
attr title "packets received from lower layer, vector(packetBytes)"
vector 110 UAVNetwork.host[0].wlan[0].mac passedUpPk:vector(packetBytes) ETV
attr interpolationmode none
attr source packetSentToUpper
attr title "packets passed to higher layer, vector(packetBytes)"
vector 111 UAVNetwork.host[0].wlan[0].mac rcvdPkFromHL:vector(packetBytes) ETV
attr interpolationmode none
attr source packetReceivedFromUpper
attr title "packets received from higher layer, vector(packetBytes)"
vector 112 UAVNetwork.host[0].wlan[0].mac sentDownPk:vector(packetBytes) ETV
attr interpolationmode none
attr source packetSentToLower
attr title "packets sent to lower layer, vector(packetBytes)"
vector 113 UAVNetwork.host[0].wlan[0].radio transmissionState:vector ETV
attr interpolationmode sample-hold
attr source transmissionStateChanged
attr title "Radio transmission state, vector"
vector 114 UAVNetwork.host[3].wlan[0].mac rcvdPkFromLL:vector(packetBytes) ETV
attr interpolationmode none
attr source packetReceivedFromLower
attr title "packets received from lower layer, vector(packetBytes)"
vector 115 UAVNetwork.host[3].wlan[0].mac passedUpPk:vector(packetBytes) ETV
attr interpolationmode none
attr source packetSentToUpper
attr title "packets passed to higher layer, vector(packetBytes)"
vector 116 UAVNetwork.host[6].wlan[0].mac rcvdPkFromHL:vector(packetBytes) ETV
attr interpolationmode none
attr source packetReceivedFromUpper
attr title "packets received from higher layer, vector(packetBytes)"
vector 117 UAVNetwork.host[6].wlan[0].mac sentDownPk:vector(packetBytes) ETV
attr interpolationmode none
attr source packetSentToLower
attr title "packets sent to lower layer, vector(packetBytes)"
vector 118 UAVNetwork.host[6].wlan[0].radio transmissionState:vector ETV
attr interpolationmode sample-hold
attr source transmissionStateChanged
attr title "Radio transmission state, vector"
vector 119 UAVNetwork.host[1].wlan[0].mac rcvdPkFromHL:vector(packetBytes) ETV
attr interpolationmode none
attr source packetReceivedFromUpper
attr title "packets received from higher layer, vector(packetBytes)"
vector 120 UAVNetwork.host[1].wlan[0].mac sentDownPk:vector(packetBytes) ETV
attr interpolationmode none
attr source packetSentToLower
attr title "packets sent to lower layer, vector(packetBytes)"
vector 121 UAVNetwork.host[1].wlan[0].radio transmissionState:vector ETV
attr interpolationmode sample-hold
attr source transmissionStateChanged
attr title "Radio transmission state, vector"
vector 122 UAVNetwork.host[2].wlan[0].mac rcvdPkFromHL:vector(packetBytes) ETV
attr interpolationmode none
attr source packetReceivedFromUpper
attr title "packets received from higher layer, vector(packetBytes)"
vector 123 UAVNetwork.host[2].wlan[0].mac sentDownPk:vector(packetBytes) ETV
attr interpolationmode none
attr source packetSentToLower
attr title "packets sent to lower layer, vector(packetBytes)"
vector 124 UAVNetwork.host[2].wlan[0].radio transmissionState:vector ETV
attr interpolationmode sample-hold
attr source transmissionStateChanged
attr title "Radio transmission state, vector"
vector 125 UAVNetwork.host[4].wlan[0].mac rcvdPkFromHL:vector(packetBytes) ETV
attr interpolationmode none
attr source packetReceivedFromUpper
attr title "packets received from higher layer, vector(packetBytes)"
vector 126 UAVNetwork.host[4].wlan[0].mac sentDownPk:vector(packetBytes) ETV
attr interpolationmode none
attr source packetSentToLower
attr title "packets sent to lower layer, vector(packetBytes)"
vector 127 UAVNetwork.host[4].wlan[0].radio transmissionState:vector ETV
attr interpolationmode sample-hold
attr source transmissionStateChanged
attr title "Radio transmission state, vector"
vector 128 UAVNetwork.host[7].wlan[0].mac rcvdPkFromHL:vector(packetBytes) ETV
attr interpolationmode none
attr source packetReceivedFromUpper
attr title "packets received from higher layer, vector(packetBytes)"
vector 129 UAVNetwork.host[7].wlan[0].mac sentDownPk:vector(packetBytes) ETV
attr interpolationmode none
attr source packetSentToLower
attr title "packets sent to lower layer, vector(packetBytes)"
vector 130 UAVNetwork.host[7].wlan[0].radio transmissionState:vector ETV
attr interpolationmode sample-hold
attr source transmissionStateChanged
attr title "Radio transmission state, vector"
vector 131 UAVNetwork.host[5].wlan[0].mac rcvdPkFromHL:vector(packetBytes) ETV
attr interpolationmode none
attr source packetReceivedFromUpper
attr title "packets received from higher layer, vector(packetBytes)"
vector 132 UAVNetwork.host[5].wlan[0].mac sentDownPk:vector(packetBytes) ETV
attr interpolationmode none
attr source packetSentToLower
attr title "packets sent to lower layer, vector(packetBytes)"
vector 133 UAVNetwork.host[5].wlan[0].radio transmissionState:vector ETV
attr interpolationmode sample-hold
attr source transmissionStateChanged
attr title "Radio transmission state, vector"
vector 134 UAVNetwork.attackHost[0].pingTestApp[0] pingTxSeq:vector ETV
attr interpolationmode none
attr title "ping tx seq, vector"
vector 135 UAVNetwork.attackHost[0].networkLayer.arp sentReq:vector ETV
attr title "ARP request sent, vector"
vector 136 UAVNetwork.attackHost[0].wlan[0].mac rcvdPkFromHL:vector(packetBytes) ETV
attr interpolationmode none
attr source packetReceivedFromUpper
attr title "packets received from higher layer, vector(packetBytes)"
vector 137 UAVNetwork.attackHost[0].wlan[0].mac sentDownPk:vector(packetBytes) ETV
attr interpolationmode none
attr source packetSentToLower
attr title "packets sent to lower layer, vector(packetBytes)"
vector 138 UAVNetwork.attackHost[0].wlan[0].radio transmissionState:vector ETV
attr interpolationmode sample-hold
attr source transmissionStateChanged
attr title "Radio transmission state, vector"
vector 139 UAVNetwork.host[0].networkLayer.arp sentReply:vector ETV
attr title "ARP replies sent, vector"
vector 140 UAVNetwork.host[0].lo0.lo rcvdPkFromHL:vector(packetBytes) ETV
attr interpolationmode none
attr source packetReceivedFromUpper
attr title "packets received from higher layer, vector(packetBytes)"
vector 141 UAVNetwork.host[0].lo0.lo passedUpPk:vector(packetBytes) ETV
attr interpolationmode none
attr source packetSentToUpper
attr title "packets passed to higher layer, vector(packetBytes)"
vector 142 UAVNetwork.host[6].pingTestApp[0] pingTxSeq:vector ETV
attr interpolationmode none
attr title "ping tx seq, vector"
vector 143 UAVNetwork.host[0].pingTestApp[0] pingTxSeq:vector ETV
attr interpolationmode none
attr title "ping tx seq, vector"
vector 144 UAVNetwork.host[0].pingTestApp[0] pingRxSeq:vector ETV
attr interpolationmode none
attr title "ping rx seq, vector"
vector 145 UAVNetwork.host[1].pingTestApp[0] pingTxSeq:vector ETV
attr interpolationmode none
attr title "ping tx seq, vector"
vector 146 UAVNetwork.host[4].pingTestApp[0] pingTxSeq:vector ETV
attr interpolationmode none
attr title "ping tx seq, vector"
vector 147 UAVNetwork.attackHost[1].pingTestApp[0] pingTxSeq:vector ETV
attr interpolationmode none
attr title "ping tx seq, vector"
vector 148 UAVNetwork.attackHost[1].networkLayer.arp sentReq:vector ETV
attr title "ARP request sent, vector"
vector 149 UAVNetwork.attackHost[1].wlan[0].mac rcvdPkFromHL:vector(packetBytes) ETV
attr interpolationmode none
attr source packetReceivedFromUpper
attr title "packets received from higher layer, vector(packetBytes)"
vector 150 UAVNetwork.attackHost[1].wlan[0].mac sentDownPk:vector(packetBytes) ETV
attr interpolationmode none
attr source packetSentToLower
attr title "packets sent to lower layer, vector(packetBytes)"
vector 151 UAVNetwork.attackHost[1].wlan[0].radio transmissionState:vector ETV
attr interpolationmode sample-hold
attr source transmissionStateChanged
attr title "Radio transmission state, vector"
vector 152 UAVNetwork.attackHost[2].pingTestApp[0] pingTxSeq:vector ETV
attr interpolationmode none
attr title "ping tx seq, vector"
vector 153 UAVNetwork.attackHost[2].networkLayer.arp sentReq:vector ETV
attr title "ARP request sent, vector"
vector 154 UAVNetwork.attackHost[2].wlan[0].mac rcvdPkFromHL:vector(packetBytes) ETV
attr interpolationmode none
attr source packetReceivedFromUpper
attr title "packets received from higher layer, vector(packetBytes)"
vector 155 UAVNetwork.attackHost[2].wlan[0].mac sentDownPk:vector(packetBytes) ETV
attr interpolationmode none
attr source packetSentToLower
attr title "packets sent to lower layer, vector(packetBytes)"
vector 156 UAVNetwork.attackHost[2].wlan[0].radio transmissionState:vector ETV
attr interpolationmode sample-hold
attr source transmissionStateChanged
attr title "Radio transmission state, vector"
vector 157 UAVNetwork.host[1].networkLayer.arp sentReply:vector ETV
attr title "ARP replies sent, vector"
vector 158 UAVNetwork.host[1].lo0.lo rcvdPkFromHL:vector(packetBytes) ETV
attr interpolationmode none
attr source packetReceivedFromUpper
attr title "packets received from higher layer, vector(packetBytes)"
vector 159 UAVNetwork.host[1].lo0.lo passedUpPk:vector(packetBytes) ETV
attr interpolationmode none
attr source packetSentToUpper
attr title "packets passed to higher layer, vector(packetBytes)"
vector 160 UAVNetwork.host[2].pingTestApp[0] pingTxSeq:vector ETV
attr interpolationmode none
attr title "ping tx seq, vector"
vector 161 UAVNetwork.host[6].networkLayer.arp sentReq:vector ETV
attr title "ARP request sent, vector"
vector 162 UAVNetwork.host[6].pingTestApp[0] pingRxSeq:vector ETV
attr interpolationmode none
attr title "ping rx seq, vector"
vector 163 UAVNetwork.host[6].pingTestApp[0] rtt:vector ETV
attr interpolationmode none
attr title "ping round-trip time, vector"
attr unit s
vector 164 UAVNetwork.host[6].pingTestApp[0] numLost:vector ETV
attr interpolationmode none
attr title "pings lost, vector"
vector 165 UAVNetwork.host[0].networkLayer.arp sentReq:vector ETV
attr title "ARP request sent, vector"
vector 166 UAVNetwork.host[0].pingTestApp[0] rtt:vector ETV
attr interpolationmode none
attr title "ping round-trip time, vector"
attr unit s
vector 167 UAVNetwork.host[1].pingTestApp[0] pingRxSeq:vector ETV
attr interpolationmode none
attr title "ping rx seq, vector"
vector 168 UAVNetwork.host[1].pingTestApp[0] numLost:vector ETV
attr interpolationmode none
attr title "pings lost, vector"
vector 169 UAVNetwork.host[3].pingTestApp[0] pingTxSeq:vector ETV
attr interpolationmode none
attr title "ping tx seq, vector"
vector 170 UAVNetwork.host[3].networkLayer.arp sentReq:vector ETV
attr title "ARP request sent, vector"
vector 171 UAVNetwork.host[3].pingTestApp[0] pingRxSeq:vector ETV
attr interpolationmode none
attr title "ping rx seq, vector"
vector 172 UAVNetwork.host[3].pingTestApp[0] rtt:vector ETV
attr interpolationmode none
attr title "ping round-trip time, vector"
attr unit s
vector 173 UAVNetwork.host[7].pingTestApp[0] pingTxSeq:vector ETV
attr interpolationmode none
attr title "ping tx seq, vector"
vector 174 UAVNetwork.host[7].networkLayer.arp sentReq:vector ETV
attr title "ARP request sent, vector"
vector 175 UAVNetwork.host[7].pingTestApp[0] pingRxSeq:vector ETV
attr interpolationmode none
attr title "ping rx seq, vector"
vector 176 UAVNetwork.host[7].pingTestApp[0] rtt:vector ETV
attr interpolationmode none
attr title "ping round-trip time, vector"
attr unit s
vector 177 UAVNetwork.host[4].networkLayer.arp sentReq:vector ETV
attr title "ARP request sent, vector"
vector 178 UAVNetwork.host[5].pingTestApp[0] pingTxSeq:vector ETV
attr interpolationmode none
attr title "ping tx seq, vector"
vector 179 UAVNetwork.host[5].networkLayer.arp sentReq:vector ETV
attr title "ARP request sent, vector"
vector 180 UAVNetwork.host[5].pingTestApp[0] pingRxSeq:vector ETV
attr interpolationmode none
attr title "ping rx seq, vector"
vector 181 UAVNetwork.host[5].pingTestApp[0] rtt:vector ETV
attr interpolationmode none
attr title "ping round-trip time, vector"
attr unit s
vector 182 UAVNetwork.host[2].networkLayer.arp sentReply:vector ETV
attr title "ARP replies sent, vector"
vector 183 UAVNetwork.host[2].lo0.lo rcvdPkFromHL:vector(packetBytes) ETV
attr interpolationmode none
attr source packetReceivedFromUpper
attr title "packets received from higher layer, vector(packetBytes)"
vector 184 UAVNetwork.host[2].lo0.lo passedUpPk:vector(packetBytes) ETV
attr interpolationmode none
attr source packetSentToUpper
attr title "packets passed to higher layer, vector(packetBytes)"
vector 185 UAVNetwork.host[2].networkLayer.arp sentReq:vector ETV
attr title "ARP request sent, vector"
vector 186 UAVNetwork.host[2].pingTestApp[0] pingRxSeq:vector ETV
attr interpolationmode none
attr title "ping rx seq, vector"
vector 187 UAVNetwork.host[2].pingTestApp[0] rtt:vector ETV
attr interpolationmode none
attr title "ping round-trip time, vector"
attr unit s
vector 188 UAVNetwork.host[2].pingTestApp[0] numLost:vector ETV
attr interpolationmode none
attr title "pings lost, vector"
vector 189 UAVNetwork.host[1].pingTestApp[0] rtt:vector ETV
attr interpolationmode none
attr title "ping round-trip time, vector"
attr unit s
vector 190 UAVNetwork.host[4].pingTestApp[0] pingRxSeq:vector ETV
attr interpolationmode none
attr title "ping rx seq, vector"
vector 191 UAVNetwork.host[4].pingTestApp[0] rtt:vector ETV
attr interpolationmode none
attr title "ping round-trip time, vector"
attr unit s
vector 192 UAVNetwork.host[4].pingTestApp[0] numLost:vector ETV
attr interpolationmode none
attr title "pings lost, vector"
vector 193 UAVNetwork.host[3].networkLayer.arp sentReply:vector ETV
attr title "ARP replies sent, vector"
vector 194 UAVNetwork.host[3].lo0.lo rcvdPkFromHL:vector(packetBytes) ETV
attr interpolationmode none
attr source packetReceivedFromUpper
attr title "packets received from higher layer, vector(packetBytes)"
vector 195 UAVNetwork.host[3].lo0.lo passedUpPk:vector(packetBytes) ETV
attr interpolationmode none
attr source packetSentToUpper
attr title "packets passed to higher layer, vector(packetBytes)"
vector 196 UAVNetwork.host[0].pingTestApp[0] numLost:vector ETV
attr interpolationmode none
attr title "pings lost, vector"
vector 197 UAVNetwork.host[0].pingTestApp[0] numOutOfOrderArrivals:vector ETV
attr interpolationmode none
attr title "ping out-of-order arrivals, vector"
vector 198 UAVNetwork.host[4].networkLayer.arp sentReply:vector ETV
attr title "ARP replies sent, vector"
vector 199 UAVNetwork.host[4].lo0.lo rcvdPkFromHL:vector(packetBytes) ETV
attr interpolationmode none
attr source packetReceivedFromUpper
attr title "packets received from higher layer, vector(packetBytes)"
vector 200 UAVNetwork.host[4].lo0.lo passedUpPk:vector(packetBytes) ETV
attr interpolationmode none
attr source packetSentToUpper
attr title "packets passed to higher layer, vector(packetBytes)"
vector 201 UAVNetwork.host[5].networkLayer.arp sentReply:vector ETV
attr title "ARP replies sent, vector"
vector 202 UAVNetwork.host[5].lo0.lo rcvdPkFromHL:vector(packetBytes) ETV
attr interpolationmode none
attr source packetReceivedFromUpper
attr title "packets received from higher layer, vector(packetBytes)"
vector 203 UAVNetwork.host[5].lo0.lo passedUpPk:vector(packetBytes) ETV
attr interpolationmode none
attr source packetSentToUpper
attr title "packets passed to higher layer, vector(packetBytes)"
vector 204 UAVNetwork.host[6].networkLayer.arp sentReply:vector ETV
attr title "ARP replies sent, vector"
vector 205 UAVNetwork.host[6].lo0.lo rcvdPkFromHL:vector(packetBytes) ETV
attr interpolationmode none
attr source packetReceivedFromUpper
attr title "packets received from higher layer, vector(packetBytes)"
vector 206 UAVNetwork.host[6].lo0.lo passedUpPk:vector(packetBytes) ETV
attr interpolationmode none
attr source packetSentToUpper
attr title "packets passed to higher layer, vector(packetBytes)"
vector 207 UAVNetwork.host[7].networkLayer.arp sentReply:vector ETV
attr title "ARP replies sent, vector"
vector 208 UAVNetwork.host[7].lo0.lo rcvdPkFromHL:vector(packetBytes) ETV
attr interpolationmode none
attr source packetReceivedFromUpper
attr title "packets received from higher layer, vector(packetBytes)"
vector 209 UAVNetwork.host[7].lo0.lo passedUpPk:vector(packetBytes) ETV
attr interpolationmode none
attr source packetSentToUpper
attr title "packets passed to higher layer, vector(packetBytes)"
vector 210 UAVNetwork.attackHost[0].lo0.lo rcvdPkFromHL:vector(packetBytes) ETV
attr interpolationmode none
attr source packetReceivedFromUpper
attr title "packets received from higher layer, vector(packetBytes)"
vector 211 UAVNetwork.attackHost[0].lo0.lo passedUpPk:vector(packetBytes) ETV
attr interpolationmode none
attr source packetSentToUpper
attr title "packets passed to higher layer, vector(packetBytes)"
vector 212 UAVNetwork.attackHost[0].pingTestApp[0] pingRxSeq:vector ETV
attr interpolationmode none
attr title "ping rx seq, vector"
vector 213 UAVNetwork.attackHost[0].pingTestApp[0] numLost:vector ETV
attr interpolationmode none
attr title "pings lost, vector"
vector 214 UAVNetwork.attackHost[0].networkLayer.arp sentReply:vector ETV
attr title "ARP replies sent, vector"
vector 215 UAVNetwork.attackHost[1].pingTestApp[0] pingRxSeq:vector ETV
attr interpolationmode none
attr title "ping rx seq, vector"
vector 216 UAVNetwork.attackHost[1].pingTestApp[0] rtt:vector ETV
attr interpolationmode none
attr title "ping round-trip time, vector"
attr unit s
vector 217 UAVNetwork.attackHost[1].pingTestApp[0] numLost:vector ETV
attr interpolationmode none
attr title "pings lost, vector"
vector 218 UAVNetwork.attackHost[2].pingTestApp[0] pingRxSeq:vector ETV
attr interpolationmode none
attr title "ping rx seq, vector"
vector 219 UAVNetwork.attackHost[2].pingTestApp[0] rtt:vector ETV
attr interpolationmode none
attr title "ping round-trip time, vector"
attr unit s
vector 220 UAVNetwork.attackHost[2].pingTestApp[0] numLost:vector ETV
attr interpolationmode none
attr title "pings lost, vector"
vector 221 UAVNetwork.attackHost[0].pingTestApp[0] rtt:vector ETV
attr interpolationmode none
attr title "ping round-trip time, vector"
attr unit s
vector 222 UAVNetwork.attackHost[1].lo0.lo rcvdPkFromHL:vector(packetBytes) ETV
attr interpolationmode none
attr source packetReceivedFromUpper
attr title "packets received from higher layer, vector(packetBytes)"
vector 223 UAVNetwork.attackHost[1].lo0.lo passedUpPk:vector(packetBytes) ETV
attr interpolationmode none
attr source packetSentToUpper
attr title "packets passed to higher layer, vector(packetBytes)"
vector 224 UAVNetwork.attackHost[1].networkLayer.arp sentReply:vector ETV
attr title "ARP replies sent, vector"
vector 225 UAVNetwork.attackHost[2].lo0.lo rcvdPkFromHL:vector(packetBytes) ETV
attr interpolationmode none
attr source packetReceivedFromUpper
attr title "packets received from higher layer, vector(packetBytes)"
vector 226 UAVNetwork.attackHost[2].lo0.lo passedUpPk:vector(packetBytes) ETV
attr interpolationmode none
attr source packetSentToUpper
attr title "packets passed to higher layer, vector(packetBytes)"
vector 227 UAVNetwork.host[3].pingTestApp[0] numLost:vector ETV
attr interpolationmode none
attr title "pings lost, vector"
vector 228 UAVNetwork.host[7].pingTestApp[0] numLost:vector ETV
attr interpolationmode none
attr title "pings lost, vector"
vector 229 UAVNetwork.host[5].pingTestApp[0] numLost:vector ETV
attr interpolationmode none
attr title "pings lost, vector"
0	41417 11636 0 111310 0 59.433495203357 454 0 3 1132 2942
1	53053 8 0 0 0 0 1 0 0 0 0
2	53061 11300 0 111790 0 59.585607206645 442 0 3 1102 2864
3	64361 8 0 0 0 0 1 0 0 0 0
4	64369 10956 0 112099 0 59.861429459886 428 0 3 1067 2773
5	75325 8 0 0 0 0 1 0 0 0 0
6	75333 10928 0 112022 0 59.794852256438 430 0 3 1072 2786
7	86261 8 0 0 0 0 1 0 0 0 0
8	86269 11028 0 111103 0 59.412985133635 430 0 3 1072 2786
9	97297 8 0 0 0 0 1 0 0 0 0
10	97305 11664 0 111474 0 59.481212020439 438 0 3 1092 2838
11	108969 9 0 0 0 0 1 0 0 0 0
12	108978 11530 0 110193 0 59.181583814034 432 0 3 1077 2799
13	120508 9 0 0 0 0 1 0 0 0 0
14	120517 11628 0 110916 0 59.390978155982 438 0 3 1092 2838
15	132145 9 0 0 0 0 1 0 0 0 0
16	132154 5371 0 111915 0 59.695291187154 204 0 3 507 1317
17	137525 9 0 0 0 0 1 0 0 0 0
18	137534 5320 0 111548 0 59.49492678559 204 0 3 507 1317
19	142854 9 0 0 0 0 1 0 0 0 0
20	142863 5706 0 111746 0 59.585348460369 214 0 3 532 1382
21	148569 9 0 0 0 0 1 0 0 0 0
22	148578 107962 0 112102 0 59.861429828071 4044 0 3 7409 18181
23	256540 107393 0 112110 0 59.861430078994 4023 0 3 7385 18129
24	363933 107772 0 112099 0 59.861429459886 4036 0 3 7432 18258
25	471705 107970 0 112120 0 59.861430233401 4046 0 3 7449 18299
26	579675 108254 0 112106 0 59.861429853679 4054 0 3 7465 18339
27	687929 108198 0 112097 0 59.860758524292 4053 0 3 7452 18302
28	796127 108099 0 112108 0 59.861430049546 4048 0 3 7450 18300
29	904226 107756 0 112096 0 59.860758281711 4041 0 3 7428 18242
30	1011982 108363 0 112104 0 59.861429832512 4066 0 3 7828 19416
31	1120345 108076 0 112118 0 59.861430138341 4052 0 3 7800 19346
32	1228421 107539 0 112100 0 59.861429599368 4026 0 3 7733 19171
33	1335960 222690 0 112103 0 59.861429828071 8340 0 2 804 1508
34	1558650 208914 0 112103 0 59.861429828071 7824 0 0 0 0
35	1767564 208914 0 112103 0 59.861429828071 7824 0 0 0 0
36	1976478 208914 0 112103 0 59.861429828071 7824 0 0 0 0
37	2185392 208914 0 112103 0 59.861429828071 7824 0 0 0 0
38	2394306 221328 0 112117 0 59.861430078994 8290 0 2 750 1412
39	2615634 207744 0 112110 0 59.861430078994 7780 0 0 0 0
40	2823378 207744 0 112110 0 59.861430078994 7780 0 0 0 0
41	3031122 207744 0 112110 0 59.861430078994 7780 0 0 0 0
42	3238866 207744 0 112110 0 59.861430078994 7780 0 0 0 0
43	3446610 222802 0 112086 0 59.860757459886 8344 0 2 730 1378
44	3669412 209350 0 112086 0 59.860757459886 7840 0 0 0 0
45	3878762 209350 0 112086 0 59.860757459886 7840 0 0 0 0
46	4088112 209350 0 112086 0 59.860757459886 7840 0 0 0 0
47	4297462 209350 0 112086 0 59.860757459886 7840 0 0 0 0
48	4506812 223016 0 112120 0 59.861430233401 8360 0 2 746 1406
49	4729828 209766 0 112095 0 59.860758233401 7858 0 0 0 0
50	4939594 209766 0 112095 0 59.860758233401 7858 0 0 0 0
51	5149360 209766 0 112095 0 59.860758233401 7858 0 0 0 0
52	5359126 209766 0 112095 0 59.860758233401 7858 0 0 0 0
53	5568892 223054 0 112107 0 59.861429853679 8354 0 2 772 1444
54	5791946 209898 0 112107 0 59.861429853679 7862 0 0 0 0
55	6001844 209898 0 112107 0 59.861429853679 7862 0 0 0 0
56	6211742 209898 0 112107 0 59.861429853679 7862 0 0 0 0
57	6421640 209898 0 112107 0 59.861429853679 7862 0 0 0 0
58	6631538 222852 0 112097 0 59.860758524292 8348 0 2 762 1434
59	6854390 209488 0 112097 0 59.860758524292 7848 0 0 0 0
60	7063878 209488 0 112097 0 59.860758524292 7848 0 0 0 0
61	7273366 209488 0 112097 0 59.860758524292 7848 0 0 0 0
62	7482854 209488 0 112097 0 59.860758524292 7848 0 0 0 0
63	7692342 223488 0 112109 0 59.861430049546 8370 0 2 768 1440
64	7915830 210320 0 112109 0 59.861430049546 7878 0 0 0 0
65	8126150 210320 0 112109 0 59.861430049546 7878 0 0 0 0
66	8336470 210320 0 112109 0 59.861430049546 7878 0 0 0 0
67	8546790 210320 0 112109 0 59.861430049546 7878 0 0 0 0
68	8757110 222766 0 112096 0 59.860758281711 8356 0 2 748 1412
69	8979876 209506 0 112096 0 59.860758281711 7856 0 0 0 0
70	9189382 209506 0 112096 0 59.860758281711 7856 0 0 0 0
71	9398888 209506 0 112096 0 59.860758281711 7856 0 0 0 0
72	9608394 209506 0 112096 0 59.860758281711 7856 0 0 0 0
73	9817900 219270 0 112105 0 59.861429832512 8236 0 2 400 764
74	10037170 211508 0 112105 0 59.861429832512 7944 0 0 0 0
75	10248678 211508 0 112105 0 59.861429832512 7944 0 0 0 0
76	10460186 211508 0 112105 0 59.861429832512 7944 0 0 0 0
77	10671694 211508 0 112105 0 59.861429832512 7944 0 0 0 0
78	10883202 219146 0 112119 0 59.861430138341 8220 0 2 402 766
79	11102348 211626 0 112119 0 59.861430138341 7932 0 0 0 0
80	11313974 211626 0 112119 0 59.861430138341 7932 0 0 0 0
81	11525600 211626 0 112119 0 59.861430138341 7932 0 0 0 0
82	11737226 211626 0 112119 0 59.861430138341 7932 0 0 0 0
83	11948852 218820 0 112101 0 59.861429599368 8192 0 2 432 816
84	12167672 210656 0 112101 0 59.861429599368 7888 0 0 0 0
85	12378328 210656 0 112101 0 59.861429599368 7888 0 0 0 0
86	12588984 210656 0 112101 0 59.861429599368 7888 0 0 0 0
87	12799640 210656 0 112101 0 59.861429599368 7888 0 0 0 0
88	13010296 3445 213 112005 2.168698080815 59.794196256438 122 64 132 13756 1586640
89	13013741 5992 216 112008 2.168698080815 59.794196256438 214 14 132 15362 1647284
90	13019733 22680 217 112022 2.168698080815 59.794852256438 856 0 2 856 1284
91	13042413 50507 232 112111 2.169290143283 59.861430078994 1790 14 132 130390 13976180
92	13092920 12250 232 112111 2.169290143283 59.861430078994 432 64 132 45952 5068928
93	13105170 50980 237 112066 2.169290224707 59.794853413883 1807 14 132 131912 14169424
94	13156150 12070 237 112066 2.169290224707 59.794853413883 426 64 132 45456 5030400
95	13168220 50919 242 112046 2.169290301951 59.794853027675 1804 14 132 131988 14180016
96	13219139 12075 242 112046 2.169290301951 59.794853027675 426 64 132 45468 5027376
97	13231214 50770 247 112051 2.169290334505 59.794853075367 1801 14 132 131706 14150076
98	13281984 12113 247 112051 2.169290334505 59.794853075367 427 64 132 45560 5040832
99	13294097 54266 252 112119 2.169290394903 59.861430138341 1924 14 132 138942 14873732
100	13348363 11758 252 112034 2.169290394903 59.794852811252 401 64 132 41912 4556352
101	13360121 56327 256 112105 2.169290474559 59.861429832512 1931 14 132 139622 14955676
102	13416448 11863 256 112038 2.169290474559 59.79485288534 405 64 132 42444 4623504
103	13428311 52824 260 112109 2.169290474833 59.861430049546 1808 14 132 132508 14235704
104	13481135 12667 260 112029 2.169290474833 59.794852791908 431 64 132 45896 5069056
105	13493802 55683 265 112101 2.169290666613 59.861429599368 1906 14 132 137546 14722988
106	13549485 11827 265 112042 2.169290666613 59.794852949922 403 64 132 42280 4608384
107	13561312 52943 269 112107 2.169290755272 59.861429853679 1812 14 132 132430 14215292
108	13614255 12570 269 112024 2.169290755272 59.794852652122 428 64 132 45508 5018864
109	13626825 52439 274 112103 2.169290935206 59.861429828071 1795 14 132 131106 14085756
110	13679264 12629 274 112056 2.169290935206 59.79485315543 430 64 132 45984 5095808
111	13691893 3780 290 111239 2.192190854112 59.432455203357 128 64 132 14272 1630688
112	13695673 6596 293 111296 2.192190854112 59.432823203357 226 14 132 15750 1664100
113	13702269 25048 294 111310 2.192190854112 59.433495203357 904 0 2 904 1356
114	13727317 52811 347 111986 2.192783709531 59.695550329368 1807 14 132 131996 14168744
115	13780128 12563 347 111878 2.192783709531 59.669452059094 428 64 132 45568 5030112
116	13792691 3614 371 110042 2.230739681399 59.179532709531 122 64 132 13692 1572304
117	13796305 6291 374 110172 2.230739681399 59.181335814034 215 14 132 15100 1604736
118	13802596 23884 375 110193 2.230739681399 59.181583814034 860 0 2 860 1290
119	13826480 3629 448 112117 2.238832555828 59.861430078994 123 64 132 13884 1602928
120	13830109 6412 451 111767 2.238832555828 59.585359206645 220 14 132 15666 1678756
121	13836521 24328 452 111790 2.238832555828 59.585607206645 880 0 2 880 1320
122	13860849 3604 527 112082 2.284022281878 59.860757459886 122 64 132 13760 1587584
123	13864453 6218 530 112085 2.284022281878 59.860757459886 213 14 132 15458 1662236
124	13870671 23584 531 112099 2.284022281878 59.861429459886 852 0 2 852 1278
125	13894255 3581 608 110948 2.324085938279 59.411053481512 121 64 132 13644 1574128
126	13897836 6254 611 111079 2.324085938279 59.412737133635 214 14 132 15158 1620764
127	13904090 23736 612 111103 2.324085938279 59.412985133635 856 0 2 856 1284
128	13927826 3640 686 110761 2.360316325794 59.38900694903 124 64 132 13844 1582448
129	13931466 6346 689 110893 2.360316325794 59.390730155982 218 14 132 15266 1615076
130	13937812 24092 690 110916 2.360316325794 59.390978155982 872 0 2 872 1308
131	13961904 3665 763 111457 2.389078378445 59.480684020439 124 64 132 13848 1583392
132	13965569 6364 766 111460 2.389078378445 59.480684020439 218 14 132 15270 1616020
133	13971933 24164 767 111474 2.389078378445 59.481212020439 872 0 2 872 1308
134	13996097 1667 869 111894 2.694619187154 59.694619187154 58 0 57 1653 63365
135	13997764 211 871 21721 2.694619187154 9.694619187154 8 1 1 8 8
136	13997975 2149 874 111898 2.694619187154 59.694619187154 73 64 120 8200 948160
137	14000124 2941 877 111901 2.694619187154 59.694619187154 101 14 120 8592 953648
138	14003065 11110 878 111915 2.694619187154 59.695291187154 404 0 2 404 606
139	14014175 153 936 4291 2.69506766472 4.432231311277 6 1 1 6 6
140	14014328 862 1073 109474 2.696666619802 58.584248898704 30 56 84 2016 141120
141	14015190 862 1073 109474 2.696666619802 58.584248898704 30 56 84 2016 141120
142	14016052 1639 1167 110038 3.179532709531 59.179532709531 57 0 56 1596 60116
143	14017691 1639 1173 110225 3.195254009217 59.195254009217 57 0 56 1596 60116
144	14019330 1197 1183 110345 3.195254009217 59.196966598118 42 0 56 1131 42061
145	14020527 1640 1198 110559 3.371378465556 59.371378465556 57 0 56 1596 60116
146	14022167 1640 1206 110944 3.411053481512 59.411053481512 57 0 56 1596 60116
147	14023807 1584 1216 111527 3.49425478559 59.49425478559 57 0 56 1596 60116
148	14025391 233 1218 25435 3.49425478559 11.49425478559 9 1 1 9 9
149	14025624 2086 1221 111531 3.49425478559 59.49425478559 72 64 120 8080 933760
150	14027710 2915 1224 111534 3.49425478559 59.49425478559 101 14 120 8486 939444
151	14030625 11008 1225 111548 3.49425478559 59.49492678559 404 0 2 404 606
152	14041633 1641 1481 111634 3.583576460369 59.583576460369 57 0 56 1596 60116
153	14043274 270 1483 26926 3.583576460369 12.583576460369 10 1 1 10 10
154	14043544 2138 1486 111638 3.583576460369 59.583576460369 72 64 120 8080 933760
155	14045682 3122 1489 111732 3.583576460369 59.584676460369 106 14 120 8980 997240
156	14048804 11800 1490 111746 3.583576460369 59.585348460369 424 0 2 424 636
157	14060604 259 1849 7643 3.695067433457 5.432230813819 10 1 1 10 10
158	14060863 889 2010 111677 3.696645925862 59.584249206667 31 56 84 2072 144256
159	14061752 889 2010 111677 3.696645925862 59.584249206667 31 56 84 2072 144256
160	14062641 1641 2168 112078 3.860757459886 59.860757459886 57 0 56 1596 60116
161	14064282 160 2544 22373 4.179532709531 10.179532709531 6 1 1 6 6
162	14064442 1174 2827 110163 4.182700104253 59.181325814034 41 1 56 1131 42061
163	14065616 1463 2827 110163 4.182700104253 59.181325814034 36 0.001652424895 0.004206727301 0.072678824251 0.00016126032623422
164	14067079 169 2827 108703 4.182700104253 58.18130576881 6 1 16 51 591
165	14067248 132 2893 19559 4.195254009217 9.195254009217 5 1 1 5 5
166	14067380 1461 3181 110345 4.198462647658 59.196966598118 36 0.001653330991 1.005032260234 1.07327939883 1.0102337633664
167	14068841 1170 3258 110569 4.371378465556 59.371378465556 41 1 56 1131 42061
168	14070011 168 3258 109054 4.371378465556 58.373071157128 6 1 16 51 591
169	14070179 1557 3259 110571 4.37706297636 59.37706297636 56 0 55 1540 56980
170	14071736 76 3261 10359 4.37706297636 6.37706297636 3 1 1 3 3
171	14071812 1171 3550 110705 4.38017282303 59.378776681492 41 0 55 1075 38925
172	14072983 1471 3550 110705 4.38017282303 59.378776681492 36 0.001652213061 0.00310984667 0.066841888843 0.00013015391111542
173	14074454 1557 3603 110757 4.38900694903 59.38900694903 56 0 55 1540 56980
174	14076011 154 3605 20430 4.38900694903 9.38900694903 6 1 1 6 6
175	14076165 1165 3895 110888 4.392156077174 59.390720155982 41 0 55 1075 38925
176	14077330 1459 3895 110888 4.392156077174 59.390720155982 36 0.001652653232 0.004326910757 0.071438335037 0.00015542535574825
177	14078789 106 3958 17849 4.411053481512 8.411053481512 4 1 1 4 4
178	14078895 1613 4219 111200 4.431782479398 59.431782479398 56 0 55 1540 56980
179	14080508 106 4221 14739 4.431782479398 7.431782479398 4 1 1 4 4
180	14080614 1169 4510 111332 4.434951807339 59.433495927347 41 0 55 1075 38925
181	14081783 1460 4510 111332 4.434951807339 59.433495927347 36 0.00165212732 0.003267111122 0.070615091974 0.00014783995358181
182	14083243 236 5250 11515 4.695067779299 6.43223075708 9 1 1 9 9
183	14083479 745 5382 111929 4.696686963551 59.695291561514 26 56 84 1736 120736
184	14084224 745 5382 111929 4.696686963551 59.695291561514 26 56 84 1736 120736
185	14084969 26 5455 5455 4.860757459886 4.860757459886 1 1 1 1 1
186	14084995 1144 5741 109859 4.863805207633 58.862510090606 40 1 55 1075 38925
187	14086139 1423 5741 109859 4.863805207633 58.862510090606 35 0.001652180524 0.003053545393 0.065165738117 0.00012691399311998
188	14087562 169 5741 109859 4.863805207633 58.862510090606 6 1 16 51 591
189	14087731 1418 6378 109054 5.373151343588 58.373071157128 35 0.001652350062 0.002733241675 0.0622617458 0.00011268976157045
190	14089149 1147 7542 111076 5.414202247741 59.412727133635 40 2 56 1130 42060
191	14090296 1428 7542 111076 5.414202247741 59.412727133635 35 0.001652455037 0.003208098982 0.064896573971 0.00012673741146198
192	14091724 169 7542 109258 5.414202247741 58.41272655699 6 2 17 57 699
193	14091893 187 8556 14769 5.695067714549 7.432230833287 7 1 1 7 7
194	14092080 706 8692 97549 5.69656676925 51.37706297636 25 56 84 1680 117600
195	14092786 706 8692 97549 5.69656676925 51.37706297636 25 56 84 1680 117600
196	14093492 196 9931 108773 6.198304138239 58.195254009217 7 0 15 46 496
197	14093688 27 10105 10105 6.200286269451 6.200286269451 1 1 1 1 1
198	14093715 162 12474 17543 6.695067356506 8.389455221638 6 1 1 6 6
199	14093877 718 12633 98106 6.696685695229 51.584249084899 25 56 84 1680 117600
200	14094595 718 12633 98106 6.696685695229 51.584249084899 25 56 84 1680 117600
201	14095313 162 15704 20482 7.695067781726 9.389455358739 6 1 1 6 6
202	14095475 721 15839 102074 7.696686970989 53.431782479398 25 56 84 1680 117600
203	14096196 721 15839 102074 7.696686970989 53.431782479398 25 56 84 1680 117600
204	14096917 107 19043 21481 8.695067586828 9.584024719577 4 1 1 4 4
205	14097024 722 19189 102300 8.696766386248 53.584249209027 25 56 84 1680 117600
206	14097746 722 19189 102300 8.696766386248 53.584249209027 25 56 84 1680 117600
207	14098468 107 21751 24241 9.6950673723 10.5840250271 4 1 1 4 4
208	14098575 716 21909 105710 9.696705742569 55.38900694903 25 56 84 1680 117600
209	14099291 716 21909 105710 9.696705742569 55.38900694903 25 56 84 1680 117600
210	14100007 292 24551 104890 10.694619187154 54.694619187154 10 84 84 840 70560
211	14100299 292 24551 104890 10.694619187154 54.694619187154 10 84 84 840 70560
212	14100591 436 24558 107421 10.694619187154 56.696272056276 15 8 54 465 18055
213	14101027 145 24558 104893 10.694619187154 54.694619187154 5 8 40 120 3520
214	14101172 54 25475 25968 11.49470310313 11.58402489493 2 1 1 2 2
215	14101226 426 25716 107920 11.49752205575 57.496048205342 15 8 54 465 18055
216	14101652 402 25716 107920 11.49752205575 57.496048205342 10 0.00165263508 0.00326727016 0.01900490924 3.8214166520132e-05
217	14102054 140 25716 106109 11.49752205575 55.49590742067 5 8 40 120 3520
218	14102194 436 26220 107998 11.586644198613 57.583576460369 15 8 54 465 18055
219	14102630 412 26220 107225 11.586644198613 56.585349880121 10 0.001652869122 0.003067738244 0.019821733244 4.210416222767e-05
220	14103042 145 26220 106305 11.586644198613 55.585229329491 5 8 40 120 3520
221	14103187 407 26486 107421 11.696391822234 56.696272056276 10 0.001652869122 0.001792869122 0.01732752101 3.0040279848778e-05
222	14103594 282 26908 107080 12.49425478559 56.49425478559 10 84 84 840 70560
223	14103876 282 26908 107080 12.49425478559 56.49425478559 10 84 84 840 70560
224	14104158 28 26981 26981 12.584025170245 12.584025170245 1 1 1 1 1
225	14104186 292 28188 107995 13.583576460369 57.583576460369 10 84 84 840 70560
226	14104478 292 28188 107995 13.583576460369 57.583576460369 10 84 84 840 70560
227	14104770 143 30687 110705 15.378836369518 59.378776681492 5 3 15 45 495
228	14104913 141 30868 110888 15.390739942916 59.390720155982 5 3 15 45 495
229	14105054 143 31257 111332 15.433576060172 59.433495927347 5 3 15 45 495
0	14105197 11582 112722 223672 60.195254009217 120.197205574836 424 2 3 1060 2756
2	14116779 12220 112127 223868 59.861440078994 120.373408485084 448 2 3 1120 2912
4	14128999 12494 112213 223126 59.862520698094 119.862808446082 458 2 3 1145 2977
6	14141493 12226 113112 224057 60.37706297636 120.379114320565 452 2 3 1130 2938
8	14153719 12374 113499 222326 60.411053481512 119.412963580395 454 2 3 1135 2951
10	14166093 12706 112354 223180 59.969879202192 119.918197064785 450 2 3 1125 2925
12	14178799 13104 112272 224196 59.930482922471 120.390679468487 464 2 3 1160 3016
14	14191903 12166 113300 224107 60.38900694903 120.38967894903 434 2 3 1085 2821
16	14204069 4772 114196 222800 60.694619187154 119.695291187154 170 2 3 425 1105
18	14208841 4806 113879 222446 60.49425478559 119.49598678559 174 2 3 435 1131
20	14213647 4988 113994 222553 60.583576460369 119.584248460369 176 2 3 440 1144
22	14218635 114724 112129 224203 59.861440332014 120.390679770457 4063 0 3 7490 18406
23	14333359 114799 112127 224192 59.861440078994 120.390007985752 4068 0 3 7465 18327
24	14448158 114348 112135 224205 59.861440698097 120.390679916576 4049 0 3 7411 18183
25	14562506 114195 112138 224194 59.861441111858 120.390008140185 4048 0 3 7419 18209
26	14676701 114496 112137 224199 59.861440911846 120.390679544032 4055 0 3 7429 18231
27	14791197 114523 112124 224191 59.861430524292 120.390007948472 4057 0 3 7439 18259
28	14905720 114184 112133 224196 59.861440597904 120.390679468487 4045 0 3 7394 18136
29	15019904 114216 112122 224193 59.861430281711 120.39000798799 4051 0 3 7451 18301
30	15134120 114882 112130 224197 59.861440494006 120.39067950701 4077 0 3 7899 19619
31	15249002 114690 112134 224201 59.861440634359 120.390679752958 4067 0 3 7872 19546
32	15363692 114532 112183 224207 59.861838819806 120.390679941028 4057 0 3 7850 19492
33	15478224 236058 112151 224204 59.861688332014 120.390679770457 8358 0 2 694 1314
34	15714282 222474 112151 224204 59.861688332014 120.390679770457 7878 0 0 0 0
35	15936756 222474 112151 224204 59.861688332014 120.390679770457 7878 0 0 0 0
36	16159230 222474 112151 224204 59.861688332014 120.390679770457 7878 0 0 0 0
37	16381704 222474 112151 224204 59.861688332014 120.390679770457 7878 0 0 0 0
38	16604178 236530 112127 224192 59.861440078994 120.390007985752 8382 0 2 750 1416
39	16840708 222110 112127 224192 59.861440078994 120.390007985752 7872 0 0 0 0
40	17062818 222110 112127 224192 59.861440078994 120.390007985752 7872 0 0 0 0
41	17284928 222110 112127 224192 59.861440078994 120.390007985752 7872 0 0 0 0
42	17507038 222110 112127 224192 59.861440078994 120.390007985752 7872 0 0 0 0
43	17729148 235670 112164 224206 59.861688698097 120.390679916576 8344 0 2 784 1472
44	17964818 221302 112164 224206 59.861688698097 120.390679916576 7836 0 0 0 0
45	18186120 221302 112164 224206 59.861688698097 120.390679916576 7836 0 0 0 0
46	18407422 221302 112164 224206 59.861688698097 120.390679916576 7836 0 0 0 0
47	18628724 221302 112164 224206 59.861688698097 120.390679916576 7836 0 0 0 0
48	18850026 234684 112121 224194 59.861430233401 120.390008140185 8322 0 2 772 1448
49	19084710 220894 112120 224194 59.861430233401 120.390008140185 7828 0 0 0 0
50	19305604 220894 112120 224194 59.861430233401 120.390008140185 7828 0 0 0 0
51	19526498 220894 112120 224194 59.861430233401 120.390008140185 7828 0 0 0 0
52	19747392 220894 112120 224194 59.861430233401 120.390008140185 7828 0 0 0 0
53	19968286 235676 112167 224200 59.861688911846 120.390679544032 8348 0 2 784 1472
54	20203962 221216 112167 224200 59.861688911846 120.390679544032 7836 0 0 0 0
55	20425178 221216 112167 224200 59.861688911846 120.390679544032 7836 0 0 0 0
56	20646394 221216 112167 224200 59.861688911846 120.390679544032 7836 0 0 0 0
57	20867610 221216 112167 224200 59.861688911846 120.390679544032 7836 0 0 0 0
58	21088826 236048 112124 224191 59.861430524292 120.390007948472 8362 0 2 776 1460
59	21324874 221812 112124 224191 59.861430524292 120.390007948472 7858 0 0 0 0
60	21546686 221812 112124 224191 59.861430524292 120.390007948472 7858 0 0 0 0
61	21768498 221812 112124 224191 59.861430524292 120.390007948472 7858 0 0 0 0
62	21990310 221812 112124 224191 59.861430524292 120.390007948472 7858 0 0 0 0
63	22212122 236090 112160 224183 59.861688597904 120.390007468487 8364 0 2 790 1486
64	22448212 221502 112160 224183 59.861688597904 120.390007468487 7848 0 0 0 0
65	22669714 221502 112160 224183 59.861688597904 120.390007468487 7848 0 0 0 0
66	22891216 221502 112160 224183 59.861688597904 120.390007468487 7848 0 0 0 0
67	23112718 221502 112160 224183 59.861688597904 120.390007468487 7848 0 0 0 0
68	23334220 235234 112122 224193 59.861430281711 120.39000798799 8346 0 2 728 1376
69	23569454 221504 112122 224193 59.861430281711 120.39000798799 7854 0 0 0 0
70	23790958 221504 112122 224193 59.861430281711 120.39000798799 7854 0 0 0 0
71	24012462 221504 112122 224193 59.861430281711 120.39000798799 7854 0 0 0 0
72	24233966 221504 112122 224193 59.861430281711 120.39000798799 7854 0 0 0 0
73	24455470 230708 112153 224198 59.861688494006 120.39067950701 8194 0 2 320 620
74	24686178 223384 112153 224198 59.861688494006 120.39067950701 7934 0 0 0 0
75	24909562 223384 112153 224198 59.861688494006 120.39067950701 7934 0 0 0 0
76	25132946 223384 112153 224198 59.861688494006 120.39067950701 7934 0 0 0 0
77	25356330 223384 112153 224198 59.861688494006 120.39067950701 7934 0 0 0 0
78	25579714 230602 112162 224202 59.861688634359 120.390679752958 8180 0 2 332 640
79	25810316 223234 112162 224202 59.861688634359 120.390679752958 7912 0 0 0 0
80	26033550 223234 112162 224202 59.861688634359 120.390679752958 7912 0 0 0 0
81	26256784 223234 112162 224202 59.861688634359 120.390679752958 7912 0 0 0 0
82	26480018 223234 112162 224202 59.861688634359 120.390679752958 7912 0 0 0 0
83	26703252 230572 112141 224207 59.861687599368 120.390679941028 8166 0 2 338 650
84	26933824 222864 112141 224207 59.861687599368 120.390679941028 7894 0 0 0 0
85	27156688 222864 112141 224207 59.861687599368 120.390679941028 7894 0 0 0 0
86	27379552 222864 112141 224207 59.861687599368 120.390679941028 7894 0 0 0 0
87	27602416 222864 112141 224207 59.861687599368 120.390679941028 7894 0 0 0 0
88	27825280 3672 113108 223903 60.37706297636 120.37706297636 123 84 132 14404 1697168
89	27828952 6681 113111 224033 60.37706297636 120.378866320565 226 14 132 15952 1731560
90	27835633 25356 113112 224057 60.37706297636 120.379114320565 904 0 2 904 1356
91	27860989 53850 112248 224174 59.862769317189 120.389937985739 1809 14 132 135626 14916100
92	27914839 11944 112310 223829 59.931011437823 120.373150485084 397 84 132 44732 5108464
93	27926783 53698 112125 224172 59.861430524292 120.389937948414 1803 14 132 135332 14877904
94	27980481 12017 112329 223299 59.931011570391 120.164911969476 400 84 132 44988 5128848
95	27992498 53480 112165 224206 59.861688698097 120.390679916576 1795 14 132 134930 14856964
96	28045978 11913 112201 223308 59.862510698094 120.164911997444 396 84 132 44748 5122896
97	28057891 53822 112123 224176 59.861430281711 120.389937987975 1808 14 132 135466 14891876
98	28111713 11992 112295 223740 59.93101123599 120.372050475301 399 84 132 44932 5127440
99	28123705 57895 112163 224202 59.861688634359 120.390679752958 1945 14 132 143006 15641524
100	28181600 11356 112287 223290 59.931011018707 120.16491183893 366 84 132 40552 4565408
101	28192956 60003 112154 224198 59.861688494006 120.39067950701 1953 14 132 143754 15728316
102	28252959 11349 112291 223281 59.931011146826 120.164911553325 366 84 132 40552 4565408
103	28264308 55105 112161 224117 59.861688597904 120.389679468487 1790 14 132 134748 14831472
104	28319413 12427 112383 224117 59.970535851121 120.389679468487 400 84 132 45116 5155984
105	28331840 59685 112207 224208 59.862510819806 120.390679941028 1940 14 132 142548 15591072
106	28391525 11321 112325 223304 59.931011538005 120.164911985737 365 84 132 40468 4558352
107	28402846 55418 112168 224200 59.861688911846 120.390679544032 1800 14 132 134856 14827032
108	28458264 12431 112305 223285 59.931011425923 120.164911592422 400 84 132 45084 5149584
109	28470695 55991 112152 224204 59.861688332014 120.390679770457 1819 14 132 136220 14971720
110	28526686 12214 112300 223641 59.93101139986 120.196947574836 393 84 132 44176 5033504
111	28538900 3716 112718 223519 60.195254009217 120.195254009217 119 84 132 13916 1637680
112	28542616 6539 112721 223649 60.195254009217 120.196957574836 212 14 132 15324 1670112
113	28549155 24860 112722 223672 60.195254009217 120.197205574836 848 0 2 848 1272
114	28574015 55351 112121 224179 59.861430233401 120.389938140196 1798 14 132 134838 14820300
115	28629366 12580 112315 224028 59.931011470736 120.378856320565 405 84 132 45588 5201040
116	28641946 3960 112268 224123 59.930482922471 120.389679468487 127 84 132 14736 1722912
117	28645906 7134 112271 224182 59.930482922471 120.390007468487 232 14 132 16418 1771900
118	28653040 27136 112272 224196 59.930482922471 120.390679468487 928 0 2 928 1392
119	28680176 3869 112451 223721 60.173917346983 120.371378465556 124 84 132 14412 1687056
120	28684045 6900 112126 223852 59.861440078994 120.373160485084 224 14 132 16236 1763472
121	28690945 26232 112127 223868 59.861440078994 120.373408485084 896 0 2 896 1344
122	28717177 3900 112557 222973 60.180205260402 119.860757459886 125 84 132 14488 1692032
123	28721077 7050 112212 223104 59.862520698094 119.862560446082 229 14 132 16156 1740824
124	28728127 26820 112213 223126 59.862520698094 119.862808446082 916 0 2 916 1374
125	28754947 3866 113495 222179 60.411053481512 119.411053481512 124 84 132 14468 1699312
126	28758813 6987 113498 222310 60.411053481512 119.412715580395 227 14 132 16334 1776316
127	28765800 26564 113499 222326 60.411053481512 119.412963580395 908 0 2 908 1362
128	28792364 3761 113296 224089 60.38900694903 120.38900694903 122 84 132 14244 1674480
129	28796125 6631 113299 224092 60.38900694903 120.38900694903 217 14 132 15680 1707304
130	28802756 25200 113300 224107 60.38900694903 120.38967894903 868 0 2 868 1302
131	28827956 3897 112350 223163 59.969879202192 119.917541064785 125 84 132 14632 1723136
132	28831853 6921 112353 223166 59.969879202192 119.917541064785 225 14 132 16138 1756940
133	28838774 26312 112354 223180 59.969879202192 119.918197064785 900 0 2 900 1350
134	28865086 1838 114188 222779 60.694619187154 119.694619187154 60 58 117 5250 477370
136	28866924 2026 114192 222783 60.694619187154 119.694619187154 65 120 120 7800 936000
137	28868950 2621 114195 222786 60.694619187154 119.694619187154 85 14 120 8080 939920
138	28871571 9884 114196 222800 60.694619187154 119.695291187154 340 0 2 340 510
140	28881455 760 128388 209990 68.695291454255 113.584248781387 25 56 84 1680 117600
141	28882215 760 128388 209990 68.695291454255 113.584248781387 25 56 84 1680 117600
142	28882975 1869 112516 223330 60.179532709531 120.179532709531 61 57 117 5307 480619
143	28884844 1869 112714 223515 60.195254009217 120.195254009217 61 57 117 5307 480619
144	28886713 1410 112836 223645 60.196926787249 120.196947574836 46 57 117 4017 366039
145	28888123 1869 112923 223717 60.371378465556 120.371378465556 61 57 117 5307 480619
146	28889992 1837 113491 222175 60.411053481512 119.411053481512 60 57 116 5190 466930
147	28891829 1777 113871 222378 60.49425478559 119.49425478559 60 57 116 5190 466930
149	28893606 1981 113875 222382 60.49425478559 119.49425478559 65 120 120 7800 936000
150	28895587 2644 113878 222432 60.49425478559 119.49531478559 87 14 120 8320 968720
151	28898231 9960 113879 222446 60.49425478559 119.49598678559 348 0 2 348 522
152	28908191 1837 113986 222532 60.583576460369 119.583576460369 60 57 116 5190 466930
154	28910028 2037 113990 222536 60.583576460369 119.583576460369 65 120 120 7800 936000
155	28912065 2738 113993 222539 60.583576460369 119.583576460369 88 14 120 8440 983120
156	28914803 10328 113994 222553 60.583576460369 119.584248460369 352 0 2 352 528
158	28925131 760 129908 212064 69.695291364366 114.584248664859 25 56 84 1680 117600
159	28925891 760 129908 212064 69.695291364366 114.584248664859 25 56 84 1680 117600
160	28926651 1837 114392 222969 60.860757459886 119.860757459886 60 57 116 5190 466930
162	28928488 1403 112640 223454 60.181265811145 120.181225730323 46 57 117 4017 366039
163	28929891 1677 112640 223454 60.181265811145 120.181225730323 40 0.0016522575 0.00179402763 0.069247166516 0.00011997619913774
164	28931568 152 128980 209343 69.181325112202 113.181285591384 5 19 31 125 3215
166	28931720 1730 112836 223645 60.196926787249 120.196947574836 41 0.001652499949 0.002733669485 0.071577691898 0.00012605302069282
167	28933450 1407 113049 223833 60.373111641671 120.373150485084 46 57 117 4017 366039
168	28934857 152 129221 209563 69.373151065436 113.373151048186 5 19 31 125 3215
169	28935009 1807 113104 223899 60.37706297636 120.37706297636 61 56 116 5246 470066
171	28936816 1399 113238 224032 60.378837007935 120.378856320565 46 56 116 3956 355486
172	28938215 1685 113238 224032 60.378837007935 120.378856320565 40 0.001653317484 0.002833570943 0.070015853336 0.00012390406672876
173	28939900 1807 113292 224085 60.38900694903 120.38900694903 61 56 116 5246 470066
175	28941707 1367 113413 222052 60.39069979016 119.390660399176 45 56 115 3840 342030
176	28943074 1683 113413 222052 60.39069979016 119.390660399176 40 0.001652745495 0.001793880278 0.068373784994 0.00011695618106305
178	28944757 1836 113679 222362 60.431782479398 119.431782479398 60 56 115 5130 456610
180	28946593 1374 113807 222372 60.433555669095 119.431782479398 45 56 115 3840 342030
181	28947967 1642 113807 220424 60.433555669095 118.433574970322 39 0.001653382287 0.001793896285 0.06755698766 0.0001171074703985
183	28949609 879 113916 214767 60.494927454021 115.860757459886 29 56 84 1960 137984
184	28950488 879 113916 214767 60.494927454021 115.860757459886 29 56 84 1960 137984
186	28951367 1407 112205 223097 59.862510698094 119.862550446082 46 56 116 3956 355486
187	28952774 1684 112205 223097 59.862510698094 119.862550446082 40 0.001653056262 0.002994015133 0.071327000208 0.00012983117317654
188	28954458 152 130260 210470 69.862450892246 113.862551153946 5 19 31 125 3215
189	28954610 1723 113049 223833 60.373111641671 120.373150485084 41 0.001652413351 0.002912236282 0.07306065369 0.0001325835297464
190	28956333 1378 113611 222291 60.412806220732 119.412705580395 45 57 116 3900 352350
191	28957711 1644 113611 222291 60.412806220732 119.412705580395 39 0.001652098883 0.003993970144 0.070155114771 0.00013149541104837
192	28959355 152 129437 209779 69.412767014988 113.412806278044 5 20 32 130 3470
194	28959507 894 114233 217894 60.695291829258 117.37706297636 30 56 84 2016 141120
195	28960401 894 114233 217894 60.695291829258 117.37706297636 30 56 84 2016 141120
196	28961295 152 129060 209417 69.195254009217 113.195254009217 5 18 30 120 2970
199	28961447 910 116292 218589 61.695291697186 117.584248704192 30 56 84 2016 141120
200	28962357 910 116292 218589 61.695291697186 117.584248704192 30 56 84 2016 141120
202	28963267 908 118144 222369 62.695291869606 119.431782479398 30 56 84 2016 141120
203	28964175 908 118144 222369 62.695291869606 119.431782479398 30 56 84 2016 141120
205	28965083 907 120491 222567 63.69529122365 119.584248877673 30 56 84 2016 141120
206	28965990 907 120491 222567 63.69529122365 119.584248877673 30 56 84 2016 141120
208	28966897 776 122649 222822 64.695291361235 119.695291653118 26 56 84 1736 120736
209	28967673 776 122649 222822 64.695291361235 119.695291653118 26 56 84 1736 120736
210	28968449 302 125133 205404 65.694619187154 109.694619187154 10 84 84 840 70560
211	28968751 302 125133 205404 65.694619187154 109.694619187154 10 84 84 840 70560
212	28969053 457 125140 208147 65.694619187154 111.696292056276 15 63 109 1290 114580
213	28969510 151 125140 205407 65.694619187154 109.694619187154 5 48 80 320 21120
215	28969661 448 126149 208621 66.49604742067 112.495988205342 15 63 109 1290 114580
216	28970109 413 126149 208621 66.49604742067 112.495988205342 10 0.00169263508 0.00179263508 0.01725027416 2.9764526011912e-05
217	28970522 146 126149 206469 66.49604742067 110.49594742067 5 48 80 320 21120
218	28970668 458 126350 208761 66.585309329491 112.583576460369 15 63 109 1290 114580
219	28971126 423 126350 207743 66.585309329491 111.585309880121 10 0.001653419752 0.001773419752 0.01719144437 2.9574539622464e-05
220	28971549 151 126350 206671 66.585309329491 110.585349329491 5 48 80 320 21120
221	28971700 418 126539 208147 66.696311822234 111.696292056276 10 0.00167263508 0.00275263508 0.01824752101 3.4279519034298e-05
222	28972118 294 127071 207461 67.49425478559 111.49425478559 10 84 84 840 70560
223	28972412 294 127071 207461 67.49425478559 111.49425478559 10 84 84 840 70560
225	28972706 304 128261 208758 68.583576460369 112.583576460369 10 84 84 840 70560
226	28973010 304 128261 208758 68.583576460369 112.583576460369 10 84 84 840 70560
227	28973314 152 131161 211307 70.378756036862 114.378856472219 5 18 30 120 2970
228	28973466 151 131341 211481 70.39067978758 114.390779420324 5 18 30 120 2970
229	28973617 151 131717 211852 70.433495396877 114.43347478341 5 18 30 120 2970
0	28973768 12720 225005 336513 120.615804433823 182.198425235563 456 2 3 1140 2964
2	28986488 12900 225634 336654 121.211994771264 182.372050465556 462 2 3 1155 3003
4	28999388 12330 224729 335988 120.478672300699 181.9952365792 442 2 3 1105 2873
6	29011718 11836 224649 336730 120.438718459919 182.372478956384 427 2 3 1068 2778
8	29023554 11862 224279 335528 120.411053481512 181.548386081599 426 2 3 1065 2769
10	29035416 12488 224464 335377 120.431782479398 181.433833952098 432 2 3 1080 2808
12	29047904 12312 224505 336274 120.432464967038 182.181563396394 426 2 3 1065 2769
14	29060216 12686 224222 336581 120.39068998799 182.340243445024 442 2 3 1105 2873
16	29072902 5636 226306 335781 121.49493710313 181.695291187154 196 2 3 490 1274
18	29078538 5502 224799 335427 120.49425478559 181.49492678559 194 2 3 485 1261
20	29084040 5684 224908 335603 120.583576460369 181.584248460369 196 2 3 490 1274
22	29089724 116887 224231 336738 120.390690784991 182.372479573603 4047 0 3 7411 18187
23	29206611 117424 224211 336736 120.390679985752 182.372479447267 4062 0 3 7431 18231
24	29324035 117303 224232 336735 120.390690947419 182.372479356234 4059 0 3 7456 18310
25	29441338 116614 224219 336730 120.390680140185 182.372478956384 4038 0 3 7434 18264
26	29557952 117358 224226 336723 120.390690432016 182.372309904107 4064 0 3 7489 18403
27	29675310 117546 224209 336734 120.390679948472 182.372479313781 4068 0 3 7488 18396
28	29792856 117403 224228 336733 120.390690507524 182.372479305512 4065 0 3 7492 18412
29	29910259 116248 224213 336725 120.39067998799 182.372310037939 4027 0 3 7390 18142
30	30026507 116973 224227 336737 120.390690488289 182.372479447736 4057 0 3 7821 19407
31	30143480 116911 224229 336732 120.390690576031 182.372479295481 4053 0 3 7816 19396
32	30260391 116580 224225 336721 120.390690401231 182.372309881693 4036 0 3 7778 19298
33	30376971 240756 224261 336738 120.390938784991 182.372479573603 8336 0 2 774 1458
34	30617727 225927 224261 336738 120.390938784991 182.372479573603 7823 0 0 0 0
35	30843654 225898 224261 336719 120.390938784991 182.372309573593 7822 0 0 0 0
36	31069552 225898 224261 336719 120.390938784991 182.372309573593 7822 0 0 0 0
37	31295450 225898 224261 336719 120.390938784991 182.372309573593 7822 0 0 0 0
38	31521348 241932 224211 336736 120.390679985752 182.372479447267 8368 0 2 788 1492
39	31763280 226424 224211 336736 120.390679985752 182.372479447267 7832 0 0 0 0
40	31989704 226424 224211 336736 120.390679985752 182.372479447267 7832 0 0 0 0
41	32216128 226424 224211 336736 120.390679985752 182.372479447267 7832 0 0 0 0
42	32442552 226424 224211 336736 120.390679985752 182.372479447267 7832 0 0 0 0
43	32668976 241378 224263 336735 120.390938947419 182.372479356234 8352 0 2 752 1416
44	32910354 227046 224263 336735 120.390938947419 182.372479356234 7856 0 0 0 0
45	33137400 227046 224263 336735 120.390938947419 182.372479356234 7856 0 0 0 0
46	33364446 227046 224263 336735 120.390938947419 182.372479356234 7856 0 0 0 0
47	33591492 227046 224263 336735 120.390938947419 182.372479356234 7856 0 0 0 0
48	33818538 240658 224219 336730 120.390680140185 182.372478956384 8336 0 2 716 1352
49	34059196 226930 224219 336730 120.390680140185 182.372478956384 7856 0 0 0 0
50	34286126 226930 224219 336730 120.390680140185 182.372478956384 7856 0 0 0 0
51	34513056 226930 224219 336730 120.390680140185 182.372478956384 7856 0 0 0 0
52	34739986 226930 224219 336730 120.390680140185 182.372478956384 7856 0 0 0 0
53	34966916 241710 224251 336723 120.390938432016 182.372309904107 8370 0 2 708 1340
54	35208626 227626 224251 336723 120.390938432016 182.372309904107 7882 0 0 0 0
55	35436252 227626 224251 336723 120.390938432016 182.372309904107 7882 0 0 0 0
56	35663878 227626 224251 336723 120.390938432016 182.372309904107 7882 0 0 0 0
57	35891504 227626 224251 336723 120.390938432016 182.372309904107 7882 0 0 0 0
58	36119130 242252 224209 336734 120.390679948472 182.372479313781 8384 0 2 752 1416
59	36361382 227686 224209 336734 120.390679948472 182.372479313781 7880 0 0 0 0
60	36589068 227686 224209 336734 120.390679948472 182.372479313781 7880 0 0 0 0
61	36816754 227686 224209 336734 120.390679948472 182.372479313781 7880 0 0 0 0
62	37044440 227686 224209 336734 120.390679948472 182.372479313781 7880 0 0 0 0
63	37272126 241480 224255 336733 120.390938507524 182.372479305512 8360 0 2 722 1362
64	37513606 227474 224255 336733 120.390938507524 182.372479305512 7876 0 0 0 0
65	37741080 227474 224255 336733 120.390938507524 182.372479305512 7876 0 0 0 0
[...]
226	294286384 396 2021745 2121669 1102.583576460369 1157.583576460369 12 84 84 1008 84672
227	294286780 170 2024121 2104211 1104.378836189894 1148.378775480426 5 300 312 1530 468270
228	294286950 165 2024292 2104396 1104.39073961871 1148.390659060385 5 300 312 1530 468270
229	294287115 170 2024673 2104844 1104.433515612855 1148.433535468174 5 300 312 1530 468270
0	294287285 12614 2124020 2229226 1159.196976704377 1216.197284538147 422 2 3 1055 2743
2	294299899 13296 2124735 2230949 1159.411735698558 1216.754050017588 446 2 3 1115 2899
4	294313195 13286 2125412 2231239 1159.695301452417 1216.862808583491 444 2 3 1110 2886
6	294326481 13488 2124255 2231193 1159.37706297636 1216.862550021728 454 2 3 1135 2951
8	294339969 12508 2124095 2231023 1159.327446680407 1216.791573135891 418 2 3 1045 2717
10	294352477 12792 2124163 2230881 1159.333043519048 1216.750230784414 414 2 3 1035 2691
12	294365269 12810 2124620 2229002 1159.397110893037 1216.182346658359 414 2 3 1035 2691
14	294378079 12710 2124439 2229949 1159.38900694903 1216.391977941106 414 2 3 1035 2691
16	294390789 5230 2125368 2230776 1159.694619187154 1216.695291187154 170 2 3 425 1105
18	294396019 5214 2125077 2230557 1159.49425478559 1216.49492678559 172 2 3 430 1118
20	294401233 5456 2125254 2230665 1159.583576460369 1216.584248460369 176 2 3 440 1144
22	294406689 120462 2124020 2231260 1159.196976704377 1216.86280931706 3900 0 3 7166 17596
23	294527151 120532 2124025 2231254 1159.196977051991 1216.862809105619 3906 0 3 7143 17523
24	294647683 120823 2124011 2231239 1159.196967213299 1216.862808583491 3911 0 3 7155 17553
25	294768506 120181 2124017 2231256 1159.196967774645 1216.862809145205 3893 0 3 7104 17418
26	294888687 120672 2124023 2231250 1159.196976979282 1216.862809077124 3906 0 3 7185 17649
27	295009359 120435 2124013 2231262 1159.196967542947 1216.862809331263 3899 0 3 7176 17628
28	295129794 120184 2124027 2231258 1159.196977188449 1216.862809249158 3890 0 3 7159 17587
29	295249978 120027 2124015 2231252 1159.196967682044 1216.862809095658 3889 0 3 7156 17578
30	295370005 120978 2124022 2231240 1159.196976944002 1216.862808761053 3924 0 3 7593 18855
31	295490983 120906 2124026 2231248 1159.196977101092 1216.862809053541 3916 0 3 7574 18806
32	295611889 120596 2124024 2231246 1159.196977044836 1216.862809015286 3902 0 3 7540 18718
33	295732485 247310 2124020 2231260 1159.196976704377 1216.86280931706 8008 0 2 718 1350
34	295979795 232842 2124020 2231260 1159.196976704377 1216.86280931706 7540 0 0 0 0
35	296212637 232842 2124020 2231260 1159.196976704377 1216.86280931706 7540 0 0 0 0
36	296445479 232842 2124020 2231260 1159.196976704377 1216.86280931706 7540 0 0 0 0
37	296678321 232842 2124020 2231260 1159.196976704377 1216.86280931706 7540 0 0 0 0
38	296911163 247764 2124046 2231254 1159.197225051991 1216.862809105619 8030 0 2 768 1448
39	297158927 231856 2124046 2231254 1159.197225051991 1216.862809105619 7514 0 0 0 0
40	297390783 231856 2124046 2231254 1159.197225051991 1216.862809105619 7514 0 0 0 0
41	297622639 231856 2124046 2231254 1159.197225051991 1216.862809105619 7514 0 0 0 0
42	297854495 231856 2124046 2231254 1159.197225051991 1216.862809105619 7514 0 0 0 0
43	298086351 249568 2124011 2231239 1159.196967213299 1216.862808583491 8078 0 2 758 1426
44	298335919 234464 2124011 2231239 1159.196967213299 1216.862808583491 7590 0 0 0 0
45	298570383 234464 2124011 2231239 1159.196967213299 1216.862808583491 7590 0 0 0 0
46	298804847 234464 2124011 2231239 1159.196967213299 1216.862808583491 7590 0 0 0 0
47	299039311 234464 2124011 2231239 1159.196967213299 1216.862808583491 7590 0 0 0 0
48	299273775 248536 2124017 2231256 1159.196967774645 1216.862809145205 8054 0 2 766 1438
49	299522311 233128 2124017 2231256 1159.196967774645 1216.862809145205 7550 0 0 0 0
50	299755439 233128 2124017 2231256 1159.196967774645 1216.862809145205 7550 0 0 0 0
51	299988567 233128 2124017 2231256 1159.196967774645 1216.862809145205 7550 0 0 0 0
52	300221695 233128 2124017 2231256 1159.196967774645 1216.862809145205 7550 0 0 0 0
53	300454823 248708 2124042 2231250 1159.197224979282 1216.862809077124 8050 0 2 706 1334
54	300703531 233984 2124042 2231250 1159.197224979282 1216.862809077124 7574 0 0 0 0
55	300937515 233984 2124042 2231250 1159.197224979282 1216.862809077124 7574 0 0 0 0
56	301171499 233984 2124042 2231250 1159.197224979282 1216.862809077124 7574 0 0 0 0
57	301405483 233984 2124042 2231250 1159.197224979282 1216.862809077124 7574 0 0 0 0
58	301639467 248398 2124013 2231262 1159.196967542947 1216.862809331263 8042 0 2 724 1360
59	301887865 233796 2124013 2231262 1159.196967542947 1216.862809331263 7570 0 0 0 0
60	302121661 233796 2124013 2231262 1159.196967542947 1216.862809331263 7570 0 0 0 0
61	302355457 233796 2124013 2231262 1159.196967542947 1216.862809331263 7570 0 0 0 0
62	302589253 233796 2124013 2231262 1159.196967542947 1216.862809331263 7570 0 0 0 0
63	302823049 248464 2124051 2231258 1159.197225188449 1216.862809249158 8042 0 2 756 1412
64	303071513 233856 2124051 2231258 1159.197225188449 1216.862809249158 7570 0 0 0 0
65	303305369 233856 2124051 2231258 1159.197225188449 1216.862809249158 7570 0 0 0 0
66	303539225 233856 2124051 2231258 1159.197225188449 1216.862809249158 7570 0 0 0 0
67	303773081 233856 2124051 2231258 1159.197225188449 1216.862809249158 7570 0 0 0 0
68	304006937 248266 2124015 2231252 1159.196967682044 1216.862809095658 8046 0 2 706 1326
69	304255203 233956 2124015 2231252 1159.196967682044 1216.862809095658 7578 0 0 0 0
70	304489159 233956 2124015 2231252 1159.196967682044 1216.862809095658 7578 0 0 0 0
71	304723115 233956 2124015 2231252 1159.196967682044 1216.862809095658 7578 0 0 0 0
72	304957071 233956 2124015 2231252 1159.196967682044 1216.862809095658 7578 0 0 0 0
73	305191027 243458 2124040 2231240 1159.197224944002 1216.862808761053 7902 0 2 322 622
74	305434485 235562 2124040 2231240 1159.197224944002 1216.862808761053 7646 0 0 0 0
75	305670047 235562 2124040 2231240 1159.197224944002 1216.862808761053 7646 0 0 0 0
76	305905609 235562 2124040 2231240 1159.197224944002 1216.862808761053 7646 0 0 0 0
77	306141171 235562 2124040 2231240 1159.197224944002 1216.862808761053 7646 0 0 0 0
78	306376733 243464 2124010 2231248 1159.196967084717 1216.862809053541 7888 0 2 328 632
79	306620197 235620 2124010 2231248 1159.196967084717 1216.862809053541 7628 0 0 0 0
80	306855817 235620 2124010 2231248 1159.196967084717 1216.862809053541 7628 0 0 0 0
81	307091437 235620 2124010 2231248 1159.196967084717 1216.862809053541 7628 0 0 0 0
82	307327057 235651 2124009 2231248 1159.196967084717 1216.862809053541 7629 0 0 0 0
83	307562708 244120 2124044 2231246 1159.197225044836 1216.862809015286 7898 0 2 342 654
84	307806828 235812 2124044 2231246 1159.197225044836 1216.862809015286 7630 0 0 0 0
85	308042640 235812 2124044 2231246 1159.197225044836 1216.862809015286 7630 0 0 0 0
86	308278452 235812 2124044 2231246 1159.197225044836 1216.862809015286 7630 0 0 0 0
87	308514264 235812 2124044 2231246 1159.197225044836 1216.862809015286 7630 0 0 0 0
88	308750076 3964 2124251 2231123 1159.37706297636 1216.861430021728 122 64 132 14072 1640480
89	308754040 7312 2124254 2231179 1159.37706297636 1216.861878021728 227 14 132 15966 1717876
90	308761352 27884 2124255 2231193 1159.37706297636 1216.862550021728 908 0 2 908 1362
91	308789236 56073 2124047 2231255 1159.197225051991 1216.862809105619 1730 14 132 128938 14144956
92	308845309 12785 2124114 2231048 1159.327974894594 1216.791573782226 391 64 132 43736 4983008
93	308858094 56531 2124014 2231263 1159.196967542947 1216.862809331263 1743 14 132 129854 14223140
94	308914625 12488 2124142 2231058 1159.327975657959 1216.791573916591 382 64 132 42672 4855232
95	308927113 56252 2124012 2231205 1159.196967213299 1216.862550583491 1734 14 132 130254 14291644
96	308983365 12983 2124137 2231205 1159.32797537599 1216.862550583491 397 64 132 44412 5060176
97	308996348 56369 2124016 2231253 1159.196967682044 1216.862809095658 1738 14 132 130404 14305752
98	309052717 12711 2124147 2231043 1159.327975835301 1216.79157370294 389 64 132 43496 4954400
99	309065428 60748 2124010 2231249 1159.196967084717 1216.862809053541 1873 14 132 137190 14957820
100	309126176 12055 2124133 2231025 1159.327975346918 1216.791573382252 358 64 132 39372 4423408
101	309138231 62632 2124041 2231241 1159.197224944002 1216.862808761053 1877 14 132 137820 15039048
102	309200863 12078 2124129 2231034 1159.327975108751 1216.791573554398 359 64 132 39536 4447232
103	309212941 58115 2124052 2231259 1159.197225188449 1216.862809249158 1738 14 132 129882 14234476
104	309271056 12950 2124124 2231067 1159.32797495544 1216.791574245846 384 64 132 42848 4871840
105	309284006 62295 2124045 2231247 1159.197225044836 1216.862809015286 1863 14 132 137090 14964340
106	309346301 12119 2124110 2231063 1159.327974792588 1216.791573988632 360 64 132 39652 4460688
107	309358420 58314 2124043 2231251 1159.197224979282 1216.862809077124 1744 14 132 130010 14245076
108	309416734 13050 2124215 2230961 1159.333700495952 1216.754050668164 387 64 132 43252 4924464
109	309429784 58105 2124119 2231261 1159.327974953804 1216.86280931706 1738 14 132 129398 14166412
110	309487889 13081 2124119 2231053 1159.327974953804 1216.79157381075 388 64 132 43324 4928496
111	309500970 3892 2124286 2229078 1159.377736060065 1216.195254009217 115 64 132 13444 1583920
112	309504862 7049 2124019 2229209 1159.196976704377 1216.197036538147 211 14 132 15000 1631144
113	309511911 26916 2124020 2229226 1159.196976704377 1216.197284538147 844 0 2 844 1266
114	309538827 57522 2124018 2231257 1159.196967774645 1216.862809145205 1720 14 132 128946 14151380
115	309596349 13261 2124152 2231117 1159.327975966668 1216.861430021728 393 64 132 44092 5035504
116	309609610 3861 2124616 2228810 1159.397110893037 1216.179532709531 114 64 132 13284 1561232
117	309613471 6928 2124619 2228988 1159.397110893037 1216.181674658359 207 14 132 15010 1636276
118	309620399 26448 2124620 2229002 1159.397110893037 1216.182346658359 828 0 2 828 1242
119	309646847 4313 2124717 2230932 1159.411725698558 1216.753394017588 128 64 132 14496 1675488
120	309651160 7429 2124734 2230935 1159.411735698558 1216.753394017588 223 14 132 15932 1708312
121	309658589 28376 2124735 2230949 1159.411735698558 1216.754050017588 892 0 2 892 1338
122	309686965 4132 2125480 2231086 1159.860757459886 1216.860757459886 122 64 132 14172 1662160
123	309691097 7421 2125411 2231218 1159.695301452417 1216.862560583491 222 14 132 15572 1681760
124	309698518 28348 2125412 2231239 1159.695301452417 1216.862808583491 888 0 2 888 1332
125	309726866 3993 2124091 2231006 1159.327446680407 1216.790917135891 118 64 132 13652 1596272
126	309730859 6989 2124094 2231009 1159.327446680407 1216.790917135891 209 14 132 15032 1628312
127	309737848 26688 2124095 2231023 1159.327446680407 1216.791573135891 836 0 2 836 1254
128	309764536 3852 2124435 2229722 1159.38900694903 1216.38900694903 115 64 132 13340 1561296
129	309768388 6876 2124438 2229930 1159.38900694903 1216.391729941106 207 14 132 14840 1607736
130	309775264 26248 2124439 2229949 1159.38900694903 1216.391977941106 828 0 2 828 1242
131	309801512 3928 2124159 2230864 1159.333043519048 1216.749574784414 116 64 132 13504 1585120
132	309805440 6919 2124162 2230867 1159.333043519048 1216.749574784414 207 14 132 14990 1631364
133	309812359 26412 2124163 2230881 1159.333043519048 1216.750230784414 828 0 2 828 1242
134	309838771 2030 2125360 2230755 1159.694619187154 1216.694619187154 58 1157 1214 68759 81530049
135	309840801 32 2225267 2225267 1214.694619187154 1214.694619187154 1 1 1 1 1
136	309840833 2165 2125364 2230759 1159.694619187154 1216.694619187154 64 64 120 7624 911296
137	309842998 2848 2125367 2230762 1159.694619187154 1216.694619187154 85 14 120 7918 915412
138	309845846 10800 2125368 2230776 1159.694619187154 1216.695291187154 340 0 2 340 510
140	309856646 822 2141891 2222349 1168.695291855822 1213.58550908412 25 56 84 1680 117600
141	309857468 822 2141891 2222349 1168.695291855822 1213.58550908412 25 56 84 1680 117600
142	309858290 1995 2125761 2228806 1160.179532709531 1216.179532709531 57 1157 1213 67545 80056253
143	309860285 1995 2125946 2229074 1160.195254009217 1216.195254009217 57 1157 1213 67545 80056253
144	309862280 1463 2126069 2229192 1160.196907061043 1216.197026538147 42 1157 1213 49755 58953673
145	309863743 2030 2124235 2229351 1159.371378465556 1216.371378465556 58 1156 1213 68701 81392589
146	309865773 2030 2124686 2229991 1159.411053481512 1216.411053481512 58 1156 1213 68701 81392589
147	309867803 1972 2125069 2230536 1159.49425478559 1216.49425478559 58 1156 1213 68701 81392589
148	309869775 31 2224726 2224726 1214.49425478559 1214.49425478559 1 1 1 1 1
149	309869806 2122 2125073 2230540 1159.49425478559 1216.49425478559 64 64 120 7624 911296
150	309871928 2843 2125076 2230543 1159.49425478559 1216.49425478559 86 14 120 8038 929812
151	309874771 10772 2125077 2230557 1159.49425478559 1216.49492678559 344 0 2 344 516
152	309885543 2030 2125246 2230644 1159.583576460369 1216.583576460369 58 1156 1213 68701 81392589
153	309887573 32 2224998 2224998 1214.583576460369 1214.583576460369 1 1 1 1 1
154	309887605 2175 2125250 2230648 1159.583576460369 1216.583576460369 64 64 120 7624 911296
155	309889780 2970 2125253 2230651 1159.583576460369 1216.583576460369 88 14 120 8278 958612
156	309892750 11264 2125254 2230665 1159.583576460369 1216.584248460369 352 0 2 352 528
157	309904014 283 2223029 2227733 1214.179981774995 1215.4322316682 9 1 1 9 9
158	309904297 953 2124238 2225194 1159.371378465556 1214.585584944621 29 56 84 1960 137984
159	309905250 953 2124238 2225194 1159.371378465556 1214.585584944621 29 56 84 1960 137984
160	309906203 2030 2125476 2231082 1159.860757459886 1216.860757459886 58 1156 1213 68701 81392589
161	309908233 32 2222969 2222969 1214.179532709531 1214.179532709531 1 1 1 1 1
162	309908265 1469 2125889 2228939 1160.181265927737 1216.181246658359 42 1157 1213 49755 58953673
163	309909734 1658 2125889 2228939 1160.181265927737 1216.181246658359 37 0.001652259265 0.003210262093 0.065210858829 0.0001171563428033
164	309911392 170 2142341 2221471 1169.181306853044 1213.181286237071 5 319 331 1625 528215
165	309911562 32 2223377 2223377 1214.195254009217 1214.195254009217 1 1 1 1 1
166	309911594 1657 2126069 2229192 1160.196907061043 1216.197026538147 37 0.001652366293 0.003110106357 0.064909235193 0.00011584475822754
167	309913251 1499 2124245 2229481 1159.371378465556 1216.373132367507 43 1156 1213 50911 60290009
168	309914750 170 2142772 2221759 1169.373112314365 1213.373072472138 5 319 331 1625 528215
169	309914920 1972 2124247 2229530 1159.37706297636 1216.37706297636 58 1155 1212 68643 81255245
170	309916892 63 2226785 2230020 1215.37706297636 1216.411725852708 2 1 1 2 2
171	309916955 1495 2124381 2229658 1159.378817143841 1216.378856191285 43 1155 1212 50853 60152665
172	309918450 1700 2124381 2229658 1159.378817143841 1216.378856191285 38 0.001652588209 0.003089811859 0.071200095901 0.00013932004241953
173	309920150 1972 2124431 2229718 1159.38900694903 1216.38900694903 58 1155 1212 68643 81255245
174	309922122 31 2227131 2227131 1215.38900694903 1215.38900694903 1 1 1 1 1
175	309922153 1494 2124564 2229917 1159.390720942538 1216.391719941106 43 1155 1212 50853 60152665
176	309923647 1700 2124564 2229917 1159.390720942538 1216.391719941106 38 0.001652320418 0.003086160901 0.068653196339 0.00012810009170301
177	309925347 32 2224192 2224192 1214.411053481512 1214.411053481512 1 1 1 1 1
178	309925379 2030 2124874 2230343 1159.431782479398 1216.431782479398 58 1155 1212 68643 81255245
179	309927409 32 2227668 2227668 1215.431782479398 1215.431782479398 1 1 1 1 1
180	309927441 1498 2125007 2230478 1159.433516344762 1216.433576020395 43 1155 1212 50853 60152665
181	309928939 1700 2125007 2230478 1159.433516344762 1216.433576020395 38 0.001653010046 0.003170755476 0.068986496259 0.00012913089319442
182	309930639 32 2225297 2225297 1214.695067568984 1214.695067568984 1 1 1 1 1
183	309930671 989 2125391 2228630 1159.695291452417 1215.860757459886 30 56 84 2016 141120
184	309931660 989 2125391 2228630 1159.695291452417 1215.860757459886 30 56 84 2016 141120
185	309932649 32 2225685 2225685 1214.860757459886 1214.860757459886 1 1 1 1 1
186	309932681 1499 2125604 2231209 1159.862451114279 1216.862550583491 43 1156 1213 50911 60290009
187	309934180 1658 2125604 2231209 1159.862451114279 1216.862550583491 37 0.001653060939 0.003067634705 0.065584823723 0.00011804443395966
188	309935838 170 2143641 2222743 1169.862510207898 1213.862531183744 5 319 331 1625 528215
189	309936008 1655 2126428 2229481 1160.373032073195 1216.373132367507 37 0.001653224399 0.002853166266 0.065520037462 0.00011735987240266
190	309937663 1500 2124802 2230270 1159.41276591564 1216.414180965998 43 1156 1213 50911 60290009
191	309939163 1701 2124802 2230270 1159.41276591564 1216.414180965998 38 0.001652497976 0.003127484486 0.069471470967 0.00013144965205044
192	309940864 170 2142975 2222080 1169.412847870591 1213.412746509457 5 320 332 1630 531470
194	309941034 914 2127808 2230685 1160.695292072766 1216.584249188972 28 56 84 1848 127008
195	309941948 914 2127808 2230685 1160.695292072766 1216.584249188972 28 56 84 1848 127008
196	309942862 170 2142562 2221537 1169.195254009217 1213.195254009217 5 318 330 1620 524970
198	309943032 32 2230117 2230117 1216.412602223841 1216.412602223841 1 1 1 1 1
199	309943064 858 2129877 2230790 1161.695291591863 1216.695291609501 26 56 84 1736 120736
200	309943922 858 2129877 2230790 1161.695291591863 1216.695291609501 26 56 84 1736 120736
202	309944780 823 2131888 2214991 1162.695291782737 1208.431782479398 25 56 84 1680 117600
203	309945603 823 2131888 2214991 1162.695291782737 1208.431782479398 25 56 84 1680 117600
205	309946426 823 2134116 2215282 1163.695291627041 1208.584248632253 25 56 84 1680 117600
206	309947249 823 2134116 2215282 1163.695291627041 1208.584248632253 25 56 84 1680 117600
208	309948072 812 2136199 2218267 1164.695291783201 1210.38900694903 25 56 84 1680 117600
209	309948884 812 2136199 2218267 1164.695291783201 1210.38900694903 25 56 84 1680 117600
210	309949696 330 2138371 2217585 1165.694619187154 1209.694619187154 10 84 84 840 70560
211	309950026 330 2138371 2217585 1165.694619187154 1209.694619187154 10 84 84 840 70560
212	309950356 525 2138378 2220201 1165.694619187154 1211.696312056276 15 1163 1209 17790 21102580
213	309950881 170 2138378 2217588 1165.694619187154 1209.694619187154 5 848 880 4320 3733120
215	309951051 515 2139576 2221020 1166.49600742067 1212.496028205342 15 1163 1209 17790 21102580
216	309951566 440 2139576 2221020 1166.49600742067 1212.496028205342 10 0.00165263508 0.001773419752 0.01727027416 2.9843062801992e-05
217	309952006 165 2139576 2218728 1166.49600742067 1210.49602742067 5 848 880 4320 3733120
218	309952171 525 2139772 2221095 1166.585269329491 1212.583576460369 15 1163 1209 17790 21102580
219	309952696 450 2139772 2219946 1166.585269329491 1211.585249880121 10 0.001672869122 0.001773419752 0.01717144437 2.9499290933184e-05
220	309953146 170 2139772 2218927 1166.585269329491 1210.585329329491 5 848 880 4320 3733120
221	309953316 445 2139972 2220201 1166.696351822234 1211.696312056276 10 0.00167263508 0.002892869122 0.01840752101 3.5130523960698e-05
222	309953761 320 2140449 2219798 1167.49425478559 1211.49425478559 10 84 84 840 70560
223	309954081 320 2140449 2219798 1167.49425478559 1211.49425478559 10 84 84 840 70560
225	309954401 330 2141828 2221092 1168.583576460369 1212.583576460369 10 84 84 840 70560
226	309954731 330 2141828 2221092 1168.583576460369 1212.583576460369 10 84 84 840 70560
227	309955061 204 2124381 2223934 1159.378817143841 1214.378735262541 6 315 330 1935 624195
228	309955265 202 2124564 2224137 1159.390720942538 1214.390701119957 6 315 330 1935 624195
229	309955467 203 2125007 2224651 1159.433516344762 1214.433575044855 6 315 330 1935 624195

