version 2
run Ping2-0-20191218-17:59:38-11310
attr configname Ping2
attr datetime 20191218-17:59:38
attr experiment Ping2
attr inifile jamming.ini
attr iterationvars ""
attr iterationvarsf ""
attr measurement ""
attr network uavsim.UAVNetwork
attr processid 11310
attr repetition 0
attr replication #0
attr resultdir results
attr runnumber 0
attr seedset 0
param **.constraintAreaMinX 0m
param **.constraintAreaMinY 0m
param **.constraintAreaMinZ 0m
param **.constraintAreaMaxX 600m
param **.constraintAreaMaxY 400m
param **.constraintAreaMaxZ 0m
param **.host*.**.channelNumber 0
param **.attackHost*.**.channelNumber 0
param **.wlan[0].radio.displayCommunicationRange true
param *.host[0].wlan[*].radio.carrierFrequency 5GHz
param *.host[1].wlan[*].radio.carrierFrequency 5GHz
param *.host[2].wlan[*].radio.carrierFrequency 5GHz
param *.host[3].wlan[*].radio.carrierFrequency 10GHz
param *.host[4].wlan[*].radio.carrierFrequency 10GHz
param *.host[5].wlan[*].radio.carrierFrequency 10GHz
param *.channelControl.pMax 100mW
param *.channelControl.sat -110dBm
param *.channelControl.alpha 2
param *.channelControl.numChannels 1
param *.attackHost[0].wlan[*].radio.carrierFrequency 5GHz
param *.attackHost[1].wlan[*].radio.carrierFrequency 6GHz
param *.attackHost[2].wlan[*].radio.carrierFrequency 7GHz
param *.attackHost[3].wlan[*].radio.carrierFrequency 8GHz
param *.attackHost[4].wlan[*].radio.carrierFrequency 9GHz
param *.attackHost[5].wlan[*].radio.carrierFrequency 10GHz
param *.attackHost[6].wlan[*].radio.carrierFrequency 11GHz
param *.attackHost[7].wlan[*].radio.carrierFrequency 12GHz
param *.attackHost[8].wlan[*].radio.carrierFrequency 13GHz
param *.attackHost[9].wlan[*].radio.carrierFrequency 14GHz
param *.attackHost[10].wlan[*].radio.carrierFrequency 15GHz
param *.attackHost[11].wlan[*].radio.carrierFrequency 5.5GHz
param *.attackHost[12].wlan[*].radio.carrierFrequency 6.5GHz
param *.attackHost[13].wlan[*].radio.carrierFrequency 7.5GHz
param *.attackHost[14].wlan[*].radio.carrierFrequency 8.5GHz
param *.attackHost[15].wlan[*].radio.carrierFrequency 9.5GHz
param *.attackHost[16].wlan[*].radio.carrierFrequency 10.5GHz
param *.attackHost[17].wlan[*].radio.carrierFrequency 11.5GHz
param *.attackHost[18].wlan[*].radio.carrierFrequency 12.5GHz
param *.attackHost[19].wlan[*].radio.carrierFrequency 13.5GHz
param *.attackHost[20].wlan[*].radio.carrierFrequency 14.5GHz
param **.attackHost[*].mobilityType "\"StationaryMobility\""
param **.attackHost[*].mobility.initFromDisplayString false
param **.host[*].mobilityType "\"MassMobility\""
param **.host[*].mobility.initFromDisplayString false
param **.host[*].mobility.changeInterval "truncnormal(2s, 0.5s)"
param **.host[*].mobility.changeAngleBy "normal(0deg, 30deg)"
param **.host[*].mobility.speed "truncnormal(20mps, 8mps)"
param **.host[*].mobility.updateInterval 100ms
param **.pingTestApp[*].continuous true
param *.host[*].pingTestApp[*].destAddr "\"*\""
param *.host[*].pingTestApp[*].startTime uniform(0.001s,3s)
param *.host[*].pingTestApp[*].sendInterval 1s
param *.host[*].pingTestApp[*].printPing true
param *.host[*].numPingTestApps 1
param *.attackHost[*].numPingTestApps 1
param *.attackHost[*].pingTestApp[*].destAddr "\"*\""
param *.attackHost[*].pingTestApp[*].startTime uniform(0.001s,3s)
param *.attackHost[*].pingTestApp[*].sendInterval 0.0001s
param **.wlan[*].bitrate 2Mbps
param **.wlan[*].mgmt.frameCapacity 10
param **.wlan[*].mac.address "\"auto\""
param **.wlan[*].mac.maxQueueSize 14
param **.wlan[*].mac.rtsThresholdBytes 3000B
param **.wlan[*].mac.retryLimit 7
param **.wlan[*].mac.cwMinData 7
param **.wlan[*].mac.cwMinBroadcast 31
param *.host[*].wlan[*].radio.transmitter.power 10mW
param *.attackHost[*].wlan[*].radio.transmitter.power 5mW

vector 0 UAVNetwork.host[0].wlan[0].radio radioMode:vector ETV
attr interpolationmode sample-hold
attr source radioModeChanged
attr title "Radio mode, vector"
vector 1 UAVNetwork.host[0].wlan[0].radio radioChannel:vector ETV
attr interpolationmode sample-hold
attr source radioChannelChanged
attr title "Radio channel, vector"
vector 2 UAVNetwork.host[1].wlan[0].radio radioMode:vector ETV
attr interpolationmode sample-hold
attr source radioModeChanged
attr title "Radio mode, vector"
vector 3 UAVNetwork.host[1].wlan[0].radio radioChannel:vector ETV
attr interpolationmode sample-hold
attr source radioChannelChanged
attr title "Radio channel, vector"
vector 4 UAVNetwork.attackHost[0].wlan[0].radio radioMode:vector ETV
attr interpolationmode sample-hold
attr source radioModeChanged
attr title "Radio mode, vector"
vector 5 UAVNetwork.attackHost[0].wlan[0].radio radioChannel:vector ETV
attr interpolationmode sample-hold
attr source radioChannelChanged
attr title "Radio channel, vector"
vector 6 UAVNetwork.attackHost[1].wlan[0].radio radioMode:vector ETV
attr interpolationmode sample-hold
attr source radioModeChanged
attr title "Radio mode, vector"
vector 7 UAVNetwork.attackHost[1].wlan[0].radio radioChannel:vector ETV
attr interpolationmode sample-hold
attr source radioChannelChanged
attr title "Radio channel, vector"
vector 8 UAVNetwork.host[0].wlan[0].radio receptionState:vector ETV
attr interpolationmode sample-hold
attr source receptionStateChanged
attr title "Radio reception state, vector"
vector 9 UAVNetwork.host[1].wlan[0].radio receptionState:vector ETV
attr interpolationmode sample-hold
attr source receptionStateChanged
attr title "Radio reception state, vector"
vector 10 UAVNetwork.attackHost[0].wlan[0].radio receptionState:vector ETV
attr interpolationmode sample-hold
attr source receptionStateChanged
attr title "Radio reception state, vector"
vector 11 UAVNetwork.attackHost[1].wlan[0].radio receptionState:vector ETV
attr interpolationmode sample-hold
attr source receptionStateChanged
attr title "Radio reception state, vector"
vector 12 UAVNetwork.host[0].wlan[0].mac.dcf.channelAccess.contention state:vector ETV
attr interpolationmode none
attr source stateChanged
attr title "contention state, vector"
vector 13 UAVNetwork.host[0].wlan[0].mac.hcf.edca.edcaf[0].contention state:vector ETV
attr interpolationmode none
attr source stateChanged
attr title "contention state, vector"
vector 14 UAVNetwork.host[0].wlan[0].mac.hcf.edca.edcaf[1].contention state:vector ETV
attr interpolationmode none
attr source stateChanged
attr title "contention state, vector"
vector 15 UAVNetwork.host[0].wlan[0].mac.hcf.edca.edcaf[2].contention state:vector ETV
attr interpolationmode none
attr source stateChanged
attr title "contention state, vector"
vector 16 UAVNetwork.host[0].wlan[0].mac.hcf.edca.edcaf[3].contention state:vector ETV
attr interpolationmode none
attr source stateChanged
attr title "contention state, vector"
vector 17 UAVNetwork.host[1].wlan[0].mac.dcf.channelAccess.contention state:vector ETV
attr interpolationmode none
attr source stateChanged
attr title "contention state, vector"
vector 18 UAVNetwork.host[1].wlan[0].mac.hcf.edca.edcaf[0].contention state:vector ETV
attr interpolationmode none
attr source stateChanged
attr title "contention state, vector"
vector 19 UAVNetwork.host[1].wlan[0].mac.hcf.edca.edcaf[1].contention state:vector ETV
attr interpolationmode none
attr source stateChanged
attr title "contention state, vector"
vector 20 UAVNetwork.host[1].wlan[0].mac.hcf.edca.edcaf[2].contention state:vector ETV
attr interpolationmode none
attr source stateChanged
attr title "contention state, vector"
vector 21 UAVNetwork.host[1].wlan[0].mac.hcf.edca.edcaf[3].contention state:vector ETV
attr interpolationmode none
attr source stateChanged
attr title "contention state, vector"
vector 22 UAVNetwork.attackHost[0].wlan[0].mac.dcf.channelAccess.contention state:vector ETV
attr interpolationmode none
attr source stateChanged
attr title "contention state, vector"
vector 23 UAVNetwork.attackHost[0].wlan[0].mac.hcf.edca.edcaf[0].contention state:vector ETV
attr interpolationmode none
attr source stateChanged
attr title "contention state, vector"
vector 24 UAVNetwork.attackHost[0].wlan[0].mac.hcf.edca.edcaf[1].contention state:vector ETV
attr interpolationmode none
attr source stateChanged
attr title "contention state, vector"
vector 25 UAVNetwork.attackHost[0].wlan[0].mac.hcf.edca.edcaf[2].contention state:vector ETV
attr interpolationmode none
attr source stateChanged
attr title "contention state, vector"
vector 26 UAVNetwork.attackHost[0].wlan[0].mac.hcf.edca.edcaf[3].contention state:vector ETV
attr interpolationmode none
attr source stateChanged
attr title "contention state, vector"
vector 27 UAVNetwork.attackHost[1].wlan[0].mac.dcf.channelAccess.contention state:vector ETV
attr interpolationmode none
attr source stateChanged
attr title "contention state, vector"
vector 28 UAVNetwork.attackHost[1].wlan[0].mac.hcf.edca.edcaf[0].contention state:vector ETV
attr interpolationmode none
attr source stateChanged
attr title "contention state, vector"
vector 29 UAVNetwork.attackHost[1].wlan[0].mac.hcf.edca.edcaf[1].contention state:vector ETV
attr interpolationmode none
attr source stateChanged
attr title "contention state, vector"
vector 30 UAVNetwork.attackHost[1].wlan[0].mac.hcf.edca.edcaf[2].contention state:vector ETV
attr interpolationmode none
attr source stateChanged
attr title "contention state, vector"
vector 31 UAVNetwork.attackHost[1].wlan[0].mac.hcf.edca.edcaf[3].contention state:vector ETV
attr interpolationmode none
attr source stateChanged
attr title "contention state, vector"
vector 32 UAVNetwork.host[0].pingTestApp[0] pingTxSeq:vector ETV
attr interpolationmode none
attr title "ping tx seq, vector"
vector 33 UAVNetwork.host[0].lo0.lo rcvdPkFromHL:vector(packetBytes) ETV
attr interpolationmode none
attr source packetReceivedFromUpper
attr title "packets received from higher layer, vector(packetBytes)"
vector 34 UAVNetwork.host[0].lo0.lo passedUpPk:vector(packetBytes) ETV
attr interpolationmode none
attr source packetSentToUpper
attr title "packets passed to higher layer, vector(packetBytes)"
vector 35 UAVNetwork.host[0].pingTestApp[0] pingRxSeq:vector ETV
attr interpolationmode none
attr title "ping rx seq, vector"
vector 36 UAVNetwork.host[1].pingTestApp[0] pingTxSeq:vector ETV
attr interpolationmode none
attr title "ping tx seq, vector"
vector 37 UAVNetwork.host[1].networkLayer.arp sentReq:vector ETV
attr title "ARP request sent, vector"
vector 38 UAVNetwork.host[1].wlan[0].mac rcvdPkFromHL:vector(packetBytes) ETV
attr interpolationmode none
attr source packetReceivedFromUpper
attr title "packets received from higher layer, vector(packetBytes)"
vector 39 UAVNetwork.host[1].wlan[0].mac sentDownPk:vector(packetBytes) ETV
attr interpolationmode none
attr source packetSentToLower
attr title "packets sent to lower layer, vector(packetBytes)"
vector 40 UAVNetwork.host[1].wlan[0].radio transmissionState:vector ETV
attr interpolationmode sample-hold
attr source transmissionStateChanged
attr title "Radio transmission state, vector"
vector 41 UAVNetwork.attackHost[0].wlan[0].mac rcvdPkFromLL:vector(packetBytes) ETV
attr interpolationmode none
attr source packetReceivedFromLower
attr title "packets received from lower layer, vector(packetBytes)"
vector 42 UAVNetwork.attackHost[0].wlan[0].mac passedUpPk:vector(packetBytes) ETV
attr interpolationmode none
attr source packetSentToUpper
attr title "packets passed to higher layer, vector(packetBytes)"
vector 43 UAVNetwork.attackHost[1].wlan[0].mac rcvdPkFromLL:vector(packetBytes) ETV
attr interpolationmode none
attr source packetReceivedFromLower
attr title "packets received from lower layer, vector(packetBytes)"
vector 44 UAVNetwork.attackHost[1].wlan[0].mac passedUpPk:vector(packetBytes) ETV
attr interpolationmode none
attr source packetSentToUpper
attr title "packets passed to higher layer, vector(packetBytes)"
vector 45 UAVNetwork.host[0].wlan[0].mac rcvdPkFromLL:vector(packetBytes) ETV
attr interpolationmode none
attr source packetReceivedFromLower
attr title "packets received from lower layer, vector(packetBytes)"
vector 46 UAVNetwork.host[0].wlan[0].mac passedUpPk:vector(packetBytes) ETV
attr interpolationmode none
attr source packetSentToUpper
attr title "packets passed to higher layer, vector(packetBytes)"
vector 47 UAVNetwork.host[0].networkLayer.arp sentReply:vector ETV
attr title "ARP replies sent, vector"
vector 48 UAVNetwork.host[0].wlan[0].mac rcvdPkFromHL:vector(packetBytes) ETV
attr interpolationmode none
attr source packetReceivedFromUpper
attr title "packets received from higher layer, vector(packetBytes)"
vector 49 UAVNetwork.host[0].wlan[0].mac sentDownPk:vector(packetBytes) ETV
attr interpolationmode none
attr source packetSentToLower
attr title "packets sent to lower layer, vector(packetBytes)"
vector 50 UAVNetwork.host[0].wlan[0].radio transmissionState:vector ETV
attr interpolationmode sample-hold
attr source transmissionStateChanged
attr title "Radio transmission state, vector"
vector 51 UAVNetwork.host[1].wlan[0].mac rcvdPkFromLL:vector(packetBytes) ETV
attr interpolationmode none
attr source packetReceivedFromLower
attr title "packets received from lower layer, vector(packetBytes)"
vector 52 UAVNetwork.host[1].wlan[0].mac passedUpPk:vector(packetBytes) ETV
attr interpolationmode none
attr source packetSentToUpper
attr title "packets passed to higher layer, vector(packetBytes)"
vector 53 UAVNetwork.host[1].pingTestApp[0] pingRxSeq:vector ETV
attr interpolationmode none
attr title "ping rx seq, vector"
vector 54 UAVNetwork.host[1].pingTestApp[0] rtt:vector ETV
attr interpolationmode none
attr title "ping round-trip time, vector"
attr unit s
vector 55 UAVNetwork.attackHost[0].pingTestApp[0] pingTxSeq:vector ETV
attr interpolationmode none
attr title "ping tx seq, vector"
vector 56 UAVNetwork.attackHost[0].networkLayer.arp sentReq:vector ETV
attr title "ARP request sent, vector"
vector 57 UAVNetwork.attackHost[0].wlan[0].mac rcvdPkFromHL:vector(packetBytes) ETV
attr interpolationmode none
attr source packetReceivedFromUpper
attr title "packets received from higher layer, vector(packetBytes)"
vector 58 UAVNetwork.attackHost[0].wlan[0].mac sentDownPk:vector(packetBytes) ETV
attr interpolationmode none
attr source packetSentToLower
attr title "packets sent to lower layer, vector(packetBytes)"
vector 59 UAVNetwork.attackHost[0].wlan[0].radio transmissionState:vector ETV
attr interpolationmode sample-hold
attr source transmissionStateChanged
attr title "Radio transmission state, vector"
vector 60 UAVNetwork.attackHost[0].lo0.lo rcvdPkFromHL:vector(packetBytes) ETV
attr interpolationmode none
attr source packetReceivedFromUpper
attr title "packets received from higher layer, vector(packetBytes)"
vector 61 UAVNetwork.attackHost[0].lo0.lo passedUpPk:vector(packetBytes) ETV
attr interpolationmode none
attr source packetSentToUpper
attr title "packets passed to higher layer, vector(packetBytes)"
vector 62 UAVNetwork.attackHost[0].pingTestApp[0] pingRxSeq:vector ETV
attr interpolationmode none
attr title "ping rx seq, vector"
vector 63 UAVNetwork.attackHost[0].pingTestApp[0] numLost:vector ETV
attr interpolationmode none
attr title "pings lost, vector"
vector 64 UAVNetwork.host[1].networkLayer.arp sentReply:vector ETV
attr title "ARP replies sent, vector"
vector 65 UAVNetwork.attackHost[1].networkLayer.arp sentReply:vector ETV
attr title "ARP replies sent, vector"
vector 66 UAVNetwork.attackHost[1].wlan[0].mac rcvdPkFromHL:vector(packetBytes) ETV
attr interpolationmode none
attr source packetReceivedFromUpper
attr title "packets received from higher layer, vector(packetBytes)"
vector 67 UAVNetwork.attackHost[0].pingTestApp[0] rtt:vector ETV
attr interpolationmode none
attr title "ping round-trip time, vector"
attr unit s
vector 68 UAVNetwork.attackHost[0].pingTestApp[0] numOutOfOrderArrivals:vector ETV
attr interpolationmode none
attr title "ping out-of-order arrivals, vector"
vector 69 UAVNetwork.attackHost[1].wlan[0].mac sentDownPk:vector(packetBytes) ETV
attr interpolationmode none
attr source packetSentToLower
attr title "packets sent to lower layer, vector(packetBytes)"
vector 70 UAVNetwork.attackHost[1].wlan[0].radio transmissionState:vector ETV
attr interpolationmode sample-hold
attr source transmissionStateChanged
attr title "Radio transmission state, vector"
vector 71 UAVNetwork.attackHost[1].pingTestApp[0] pingTxSeq:vector ETV
attr interpolationmode none
attr title "ping tx seq, vector"
vector 72 UAVNetwork.attackHost[1].networkLayer.arp sentReq:vector ETV
attr title "ARP request sent, vector"
vector 73 UAVNetwork.attackHost[1].lo0.lo rcvdPkFromHL:vector(packetBytes) ETV
attr interpolationmode none
attr source packetReceivedFromUpper
attr title "packets received from higher layer, vector(packetBytes)"
vector 74 UAVNetwork.attackHost[1].lo0.lo passedUpPk:vector(packetBytes) ETV
attr interpolationmode none
attr source packetSentToUpper
attr title "packets passed to higher layer, vector(packetBytes)"
vector 75 UAVNetwork.attackHost[1].pingTestApp[0] pingRxSeq:vector ETV
attr interpolationmode none
attr title "ping rx seq, vector"
vector 76 UAVNetwork.attackHost[1].pingTestApp[0] numLost:vector ETV
attr interpolationmode none
attr title "pings lost, vector"
vector 77 UAVNetwork.attackHost[1].pingTestApp[0] numOutOfOrderArrivals:vector ETV
attr interpolationmode none
attr title "ping out-of-order arrivals, vector"
vector 78 UAVNetwork.host[0].pingTestApp[0] rtt:vector ETV
attr interpolationmode none
attr title "ping round-trip time, vector"
attr unit s
vector 79 UAVNetwork.host[1].lo0.lo rcvdPkFromHL:vector(packetBytes) ETV
attr interpolationmode none
attr source packetReceivedFromUpper
attr title "packets received from higher layer, vector(packetBytes)"
vector 80 UAVNetwork.host[1].lo0.lo passedUpPk:vector(packetBytes) ETV
attr interpolationmode none
attr source packetSentToUpper
attr title "packets passed to higher layer, vector(packetBytes)"
0	0	0	0
0	0	0	2
0	92	1.779500376741	3
0	98	1.779948376741	2
0	151	1.781001121016	3
0	161	1.781249121016	2
0	171	1.781439121016	3
0	177	1.782111121016	2
0	399	2.147468040087	3
0	425	2.147916040087	2
0	651	2.149784744608	3
0	671	2.150032744608	2
0	692	2.150082744608	3
0	735	2.150754744608	2
0	846	2.151747013678	3
0	869	2.151995013678	2
0	1065	2.153525639969	3
0	1096	2.153773639969	2
0	1173	2.154527909036	3
0	1198	2.154775909036	2
0	1208	2.154845909036	3
0	1261	2.155517909036	2
0	1387	2.156610178101	3
0	1418	2.156858178101	2
0	1429	2.156948178101	3
0	1477	2.157620178101	2
0	1604	2.158712447164	3
0	1636	2.158960447164	2
0	1714	2.159694716226	3
0	1735	2.159942716226	2
0	1750	2.160012716226	3
0	1804	2.160684716226	2
0	1926	2.161676985286	3
0	1947	2.161924985286	2
0	2287	2.16501855498	3
0	2341	2.16569055498	2
0	2711	2.169021690459	3
0	2765	2.169693690459	2
0	3036	2.172124392296	3
0	3084	2.172796392296	2
0	3138	2.173106661345	3
0	3192	2.173778661345	2
0	3418	2.175811362718	3
0	3450	2.176059362718	2
0	3776	2.179132420031	3
0	3830	2.179804420031	2
0	3946	2.180816689074	3
0	3978	2.181064689074	2
0	4198	2.183138398255	3
0	4252	2.183810398255	2
0	4690	2.18782410723	3
0	4722	2.18807210723	2
0	4732	2.18814210723	3
0	4780	2.18881410723	2
0	5117	2.19188723739	3
0	5144	2.19213523739	2
0	5159	2.19222523739	3
0	5213	2.19289723739	2
0	5869	2.199188665339	3
0	5895	2.199436665339	2
0	6233	2.20251029847	3
0	6282	2.20318229847	2
0	6506	2.205215576291	3
0	6537	2.205463576291	2
0	6660	2.206596273912	3
0	6714	2.207268273912	2
0	7795	2.217406014841	3
0	7827	2.217654014841	2
0	7837	2.217724014841	3
0	7885	2.218396014841	2
0	11434	2.252025852899	3
0	11466	2.252273852899	2
0	11550	2.253068121921	3
0	11576	2.253316121921	2
0	11693	2.254368814179	3
0	11742	2.255040814179	2
0	12015	2.257452445216	3
0	12069	2.258124445216	2
0	15182	2.287593530658	3
0	15209	2.287841530658	2
0	15224	2.287931530658	3
0	15286	2.288603530658	2
0	15446	2.290114151676	3
0	15495	2.290786151676	2
0	18187	2.31623253272	3
0	18219	2.31648053272	2
0	18229	2.31653053272	3
0	18277	2.31720253272	2
0	19252	2.32631925283	3
0	19284	2.32656725283	2
0	19935	2.3326623693	3
0	19984	2.3333343693	2
0	20425	2.337448061385	3
0	20457	2.337696061385	2
0	20472	2.337786061385	3
0	20526	2.338458061385	2
0	20642	2.339470330471	3
0	20669	2.339718330471	2
0	21115	2.343832021837	3
0	21176	2.344504021837	2
0	22129	2.353578205838	3
0	22156	2.353826205838	2
0	22286	2.354938824502	3
0	22341	2.355610824502	2
0	22494	2.357119236599	3
0	22548	2.357791236599	2
0	22711	2.35916185507	3
0	22761	2.35983385507	2
0	24277	2.374052999612	3
0	24298	2.374300999612	2
0	24313	2.374370999612	3
0	24362	2.375042999612	2
0	24707	2.378215678699	3
0	24738	2.378463678699	2
0	25022	2.381178956641	3
0	25049	2.381426956641	2
0	25064	2.381516956641	3
0	25118	2.382188956641	2
0	25283	2.383539634822	3
0	25350	2.384211634822	2
0	25787	2.388264061719	3
0	25814	2.388512061719	2
0	26211	2.392347748112	3
0	26243	2.392595748112	2
0	26321	2.393330017287	3
0	26347	2.393578017287	2
0	26466	2.394650634509	3
0	26520	2.395322634509	2
0	26579	2.395692903689	3
0	26627	2.396364903689	2
0	27003	2.399736854419	3
0	27052	2.400408854419	2
0	27174	2.40142112361	3
0	27206	2.40166912361	2
0	27499	2.404484147743	3
0	27520	2.404732147743	2
0	27535	2.404782147743	3
0	27589	2.405454147743	2
0	27643	2.405764416944	3
0	27686	2.406436416944	2
0	27957	2.408807092867	3
0	28011	2.409479092867	2
0	29107	2.419836811934	3
0	29138	2.420084811934	2
0	29255	2.421217428205	3
0	29310	2.421889428205	2
0	30067	2.428945732619	3
0	30093	2.429193732619	2
0	30218	2.430346405898	3
0	30272	2.431018405898	2
0	30925	2.437133416425	3
0	30957	2.437381416425	2
0	30972	2.437491416425	3
0	31026	2.438163416425	2
0	31365	2.441256694499	3
0	31386	2.441504694499	2
0	31511	2.442637366503	3
0	31566	2.443309366503	2
0	31899	2.446402962515	3
0	31925	2.446650962515	2
0	32055	2.447743577843	3
0	32110	2.448415577843	2
0	32169	2.448903577843	3
0	32225	2.449575577843	2
0	32259	2.449943577843	3
0	32314	2.450615577843	2
0	32670	2.454049864743	3
0	32701	2.454297864743	2
0	32934	2.456390825459	3
0	32995	2.457062825459	2
0	33255	2.459609785972	3
0	33308	2.460281785972	2
0	33951	2.466356474019	3
0	33977	2.466604474019	2
0	34318	2.469737488846	3
0	34366	2.470409488846	2
0	35147	2.477666801268	3
0	35167	2.477914801268	2
0	35512	2.481009431787	3
0	35572	2.481681431787	2
0	35824	2.484129053252	3
0	35872	2.484801053252	2
0	36634	2.491877057239	3
0	36660	2.492125057239	2
0	36743	2.492899324244	3
0	36764	2.493147324244	2
0	36779	2.493217324244	3
0	36833	2.493889324244	2
0	36892	2.494299591132	3
0	36946	2.494971591132	2
0	38782	2.512549165095	3
0	38807	2.512797165095	2
0	38833	2.512987165095	3
0	38888	2.513659165095	2
0	39216	2.516752439145	3
0	39247	2.517000439145	2
0	39377	2.518153048109	3
0	39421	2.518825048109	2
0	39645	2.520838321799	3
0	39676	2.521086321799	2
0	39691	2.521176321799	3
0	39741	2.521848321799	2
0	40291	2.526921990615	3
0	40317	2.527169990615	2
0	40338	2.527319990615	3
0	40386	2.527991990615	2
0	42425	2.541804403501	3
0	42456	2.542052403501	2
0	42658	2.543165058864	3
0	42715	2.543613058864	2
0	42842	2.543922999534	3
0	42944	2.544594999534	2
0	44874	2.555713394284	3
0	44915	2.555961394284	2
0	44925	2.556011394284	3
0	45026	2.556683394284	2
0	45216	2.557735656288	3
0	45257	2.557983656288	2
0	45267	2.558033656288	3
0	45368	2.558705656288	2
0	46433	2.564940628402	3
0	46474	2.565188628402	2
0	46484	2.565238628402	3
0	46585	2.565910628402	2
0	49033	2.58007172212	3
0	49064	2.58031972212	2
0	49264	2.581468368884	3
0	49355	2.582140368884	2
0	50409	2.588215286231	3
0	50462	2.588463286231	2
0	51000	2.591636664673	3
0	51101	2.592308664673	2
0	51987	2.597384495438	3
0	52018	2.597632495438	2
0	52153	2.59838675428	3
0	52196	2.59863475428	2
0	53183	2.604392506692	3
0	53226	2.604640506692	2
0	53246	2.604710506692	3
0	53347	2.605382506692	2
0	53701	2.607415401101	3
0	53754	2.607663401101	2
0	54397	2.611458388281	3
0	54440	2.611706388281	2
0	54460	2.611776388281	3
0	54539	2.612448388281	2
0	54631	2.612838646002	3
0	54739	2.613510646002	2
0	55605	2.618622383006	3
0	55658	2.618870383006	2
0	55949	2.620625648969	3
0	56002	2.620873648969	2
0	56188	2.621986247108	3
0	56289	2.622658247108	2
0	56364	2.622968177383	3
0	56444	2.623640177383	2
0	56643	2.624672107506	3
0	56686	2.624920107506	2
0	56872	2.625972705199	3
0	56963	2.626644705199	2
0	57054	2.626994634949	3
0	57161	2.627666634949	2
0	57510	2.629795573262	3
0	57541	2.630043573262	2
0	57573	2.630133573262	3
0	57662	2.630805573262	2
0	57737	2.631135502465	3
0	57838	2.631807502465	2
0	58016	2.632819758689	3
0	58069	2.633067758689	2
0	58194	2.633841687561	3
0	58247	2.634089687561	2
0	58267	2.634219687561	3
0	58368	2.634891687561	2
0	58431	2.635201616226	3
0	58532	2.635873616226	2
0	58889	2.637867221604	3
0	58931	2.638115221604	2
0	59232	2.639890158538	3
0	59275	2.640138158538	2
0	59461	2.641190754675	3
0	59562	2.641862754675	2
0	59637	2.642173010141	3
0	59716	2.642845010141	2
0	60837	2.649218393055	3
0	60938	2.649890393055	2
0	61013	2.650220647907	3
0	61114	2.650892647907	2
0	61292	2.651904574449	3
0	61335	2.652152574449	2
0	61519	2.653225210383	3
0	61620	2.653897210383	2
0	61810	2.654889843149	3
0	61841	2.655137843149	2
0	61861	2.655187843149	3
0	61961	2.655859843149	2
0	62662	2.65993378642	3
0	62715	2.66018178642	2
0	62725	2.66023178642	3
0	62826	2.66090378642	2
0	63193	2.66295672037	3
0	63224	2.66320472037	2
0	63537	2.664979314096	3
0	63568	2.665227314096	2
0	63600	2.665317314096	3
0	63689	2.665989314096	2
0	64409	2.670064114437	3
0	64440	2.670312114437	2
0	64460	2.670382114437	3
0	64561	2.671054114437	2
0	64636	2.671384367673	3
0	64737	2.672056367673	2
0	64915	2.67306896051	3
0	64958	2.67331696051	2
0	65252	2.675110884027	3
0	65305	2.675358884027	2
0	65430	2.676133136915	3
0	65471	2.676381136915	2
0	65503	2.676471136915	3
0	65582	2.677143136915	2
0	65845	2.678513729225	3
0	65934	2.679185729225	2
0	66290	2.68121870324	3
0	66343	2.68146670324	2
0	66627	2.683200955626	3
0	66670	2.683448955626	2
0	66690	2.683538955626	3
0	66792	2.684210955626	2
0	66866	2.684521207858	3
0	66955	2.685193207858	2
0	67145	2.686225460003	3
0	67198	2.686473460003	2
0	67489	2.688248051278	3
0	67542	2.688496051278	2
0	67562	2.688566051278	3
0	67641	2.689238051278	2
0	67716	2.689548303128	3
0	67817	2.690220303128	2
0	68244	2.69257127507	3
0	68323	2.69324327507	2
0	68701	2.695256388878	3
0	68732	2.695504388878	2
0	69043	2.697259927619	3
0	69074	2.697507927619	2
0	69094	2.697597927619	3
0	69195	2.698269927619	2
0	69270	2.698579847961	3
0	69349	2.699251847961	2
0	70069	2.703287308198	3
0	70100	2.703535308198	2
0	70235	2.704269558943	3
0	70278	2.704517558943	2
0	70464	2.70565042557	3
0	70565	2.70632242557	2
0	71273	2.710376204772	3
0	71316	2.710624204772	2
0	71451	2.711378123461	3
0	71482	2.711626123461	2
0	71682	2.712774745213	3
0	71773	2.713446745213	2
0	71973	2.714459333759	3
0	72004	2.714707333759	2
0	72024	2.714797333759	3
0	72125	2.715469333759	2
0	72481	2.717522260548	3
0	72534	2.717770260548	2
0	72544	2.717840260548	3
0	72645	2.718512260548	2
0	72823	2.719524178214	3
0	72876	2.719772178214	2
0	73066	2.720844802411	3
0	73178	2.721516802411	2
0	73424	2.722885144731	3
0	73513	2.723557144731	2
0	73594	2.723887061756	3
0	73701	2.724559061756	2
0	73852	2.725549732221	3
0	73905	2.725797732221	2
0	74030	2.726531981276	3
0	74071	2.726779981276	2
0	74892	2.731596132598	3
0	74934	2.731844132598	2
0	74954	2.731934132598	3
0	75055	2.732606132598	2
0	75313	2.733956991949	3
0	75412	2.734628991949	2
0	77303	2.745720665878	3
0	77344	2.745968665878	2
0	77469	2.746742579934	3
0	77522	2.746990579934	2
0	77720	2.748063435596	3
0	77798	2.748735435596	2
0	78065	2.750182290882	3
0	78166	2.750854290882	2
0	78344	2.75186687556	3
0	78387	2.75211487556	2
0	78749	2.754228772708	3
0	78850	2.754900772708	2
0	79206	2.756913356903	3
0	79247	2.757161356903	2
0	79548	2.758936881418	3
0	79589	2.759184881418	2
0	79621	2.759254881418	3
0	79701	2.759926881418	2
0	79890	2.760938793658	3
0	79931	2.761186793658	2
0	80128	2.762299645681	3
0	80229	2.762971645681	2
0	80814	2.766324177187	3
0	80915	2.766996177187	2
0	81271	2.769029032722	3
0	81324	2.769277032722	2
0	81334	2.769347032722	3
0	81423	2.770019032722	2
0	81678	2.771425882513	3
0	81779	2.772097882513	2
0	81957	2.77310979316	3
0	82010	2.77335779316	2
0	82641	2.777114827901	3
0	82694	2.777362827901	2
0	83223	2.780396456269	3
0	83325	2.781068456269	2
0	83514	2.782100701154	3
0	83544	2.782348701154	2
0	83858	2.784103282519	3
0	83888	2.784351282519	2
1	0	0	0
2	0	0	0
2	0	0	2
2	64	1.77894100455	3
2	70	1.77938900455	2
2	111	1.779959748901	3
2	121	1.780207748901	2
2	131	1.780317748901	3
2	137	1.780989748901	2
2	189	1.78212249307	3
2	199	1.78237049307	2
2	490	2.148265392358	3
2	518	2.148713392358	2
2	2031	2.162678336713	3
2	2056	2.162926336713	2
2	2141	2.163658770411	3
2	2160	2.163906770411	2
2	2245	2.164659203992	3
2	2270	2.164907203992	2
2	2457	2.166701906168	3
2	2482	2.166949906168	2
2	2567	2.16768233939	3
2	2586	2.16793033939	2
2	2603	2.16800033939	3
2	2656	2.16867233939	2
2	2881	2.170705041409	3
2	2911	2.170953041409	2
2	2928	2.171063041409	3
2	2977	2.171735041409	2
2	3308	2.174790012052	3
2	3333	2.175038012052	2
2	3522	2.176792713306	3
2	3547	2.177040713306	2
2	3564	2.177110713306	3
2	3618	2.177782713306	2
2	3988	2.181136039173	3
2	4042	2.181808039173	2
2	4379	2.184861748367	3
2	4398	2.185109748367	2
2	4839	2.18918345707	3
2	4893	2.18985545707	2
2	4947	2.19016388763	3
2	4990	2.19083588763	2
2	5381	2.194287521672	3
2	5440	2.194959521672	2
2	5596	2.196484886299	3
2	5645	2.197156886299	2
2	5698	2.197505316008	3
2	5753	2.198177316008	2
2	6547	2.205534925049	3
2	6601	2.206206925049	2
2	7260	2.212421640001	3
2	7289	2.212669640001	2
2	7939	2.21872536296	3
2	7993	2.21939736296	2
2	8332	2.222468798754	3
2	8351	2.222716798754	2
2	8476	2.223808159038	3
2	8530	2.224480159038	2
2	8973	2.228572602984	3
2	8992	2.228820602984	2
2	9077	2.229553029017	3
2	9102	2.229801029017	2
2	9227	2.2308923882	3
2	9275	2.2315643882	2
2	9499	2.233595822662	3
2	9524	2.233843822662	2
2	9546	2.233953822662	3
2	9595	2.234625822662	2
2	9654	2.234954248059	3
2	9697	2.235626248059	2
2	10581	2.243880708081	3
2	10605	2.244128708081	2
2	10793	2.245902065027	3
2	10817	2.246150065027	2
2	10834	2.246240065027	3
2	10889	2.246912065027	2
2	11116	2.248943497747	3
2	11139	2.249191497747	2
2	11162	2.249281497747	3
2	11210	2.249953497747	2
2	11591	2.253367468049	3
2	11634	2.254039468049	2
2	12298	2.260176799795	3
2	12317	2.260424799795	2
2	12340	2.260474799795	3
2	12383	2.261146799795	2
2	13683	2.273344283098	3
2	13707	2.273592283098	2
2	13942	2.275683712781	3
2	13990	2.276355712781	2
2	14428	2.280428150881	3
2	14458	2.280676150881	2
2	14470	2.280726150881	3
2	14524	2.281398150881	2
2	15622	2.291897495707	3
2	15646	2.292145495707	2
2	15834	2.29389884527	3
2	15858	2.29414684527	2
2	15979	2.295218194501	3
2	16034	2.295890194501	2
2	16189	2.297239621785	3
2	16244	2.297911621785	2
2	16366	2.298942040091	3
2	16389	2.299190040091	2
2	16585	2.301003466983	3
2	16604	2.301251466983	2
2	16627	2.301321466983	3
2	16675	2.301993466983	2
2	16837	2.303342893597	3
2	16885	2.304014893597	2
2	17012	2.305065311234	3
2	17037	2.305313311234	2
2	17334	2.308086737404	3
2	17353	2.308334737404	2
2	17370	2.308424737404	3
2	17424	2.309096737404	2
2	17478	2.309425154507	3
2	17532	2.310097154507	2
2	18616	2.320254884007	3
2	18641	2.320502884007	2
2	18653	2.320552884007	3
2	18701	2.321224884007	2
2	19362	2.327340594949	3
2	19386	2.327588594949	2
2	19786	2.331343027447	3
2	19810	2.331591027447	2
2	19833	2.331661027447	3
2	19876	2.332333027447	2
2	20255	2.335724719746	3
2	20303	2.336396719746	2
2	20964	2.342552680575	3
2	20988	2.342800680575	2
2	21000	2.342850680575	3
2	21054	2.343522680575	2
2	21490	2.347554102585	3
2	21515	2.347802102585	2
2	21643	2.348873443663	3
2	21686	2.349545443663	2
2	22025	2.352596865086	3
2	22044	2.352844865086	2
2	22381	2.355977896023	3
2	22430	2.356649896023	2
2	22888	2.360885195426	3
2	22906	2.361133195426	2
2	22923	2.361203195426	3
2	22978	2.361875195426	2
2	23312	2.36492762434	3
2	23335	2.36517562434	2
2	23347	2.36522562434	3
2	23402	2.36589762434	2
2	24489	2.376134339183	3
2	24513	2.376382339183	2
2	24536	2.376532339183	3
2	24585	2.377204339183	2
2	25234	2.383220295849	3
2	25264	2.383468295849	2
2	25356	2.384220705025	3
2	25387	2.384468705025	2
2	25403	2.384558705025	3
2	25446	2.385230705025	2
2	25829	2.388603400415	3
2	25883	2.389275400415	2
2	26749	2.397376242182	3
2	26768	2.397624242182	2
2	27323	2.402760809553	3
2	27372	2.403432809553	2
2	27813	2.407507754929	3
2	27843	2.407755754929	2
2	27855	2.407805754929	3
2	27909	2.408477754929	2
2	28677	2.415673456817	3
2	28696	2.415921456817	2
2	28713	2.416031456817	3
2	28768	2.416703456817	2
2	30176	2.429987069496	3
2	30201	2.430235069496	2
2	30435	2.432368666964	3
2	30484	2.433040666964	2
2	30713	2.435132079844	3
2	30743	2.435380079844	2
2	30755	2.435430079844	3
2	30809	2.436102079844	2
2	31469	2.442298030778	3
2	31494	2.442546030778	2
2	31728	2.444699626382	3
2	31782	2.445371626382	2
2	33538	2.462354130081	3
2	33562	2.462602130081	2
2	34002	2.466735808248	3
2	34067	2.467407808248	2
2	34210	2.468736154157	3
2	34264	2.469408154157	2
2	36206	2.487813395273	3
2	36236	2.488061395273	2
2	36350	2.48915271559	3
2	36404	2.48982471559	2
2	37384	2.498964941018	3
2	37403	2.499212941018	2
2	37643	2.501345180598	3
2	37696	2.502017180598	2
2	37744	2.502425180598	3
2	37803	2.503097180598	2
2	38028	2.505324498735	3
2	38051	2.505572498735	2
2	38063	2.505642498735	3
2	38118	2.506314498735	2
2	38286	2.507723816338	3
2	38335	2.508395816338	2
2	39868	2.522899651934	3
2	39886	2.523147651934	2
2	39914	2.523257651934	3
2	39958	2.523929651934	2
2	40722	2.53102533772	3
2	40752	2.53127333772	2
2	40826	2.532005732419	3
2	40856	2.532253732419	2
2	40868	2.532343732419	3
2	40928	2.533015732419	2
2	41004	2.533344126979	3
2	41085	2.534016126979	2
2	41741	2.538048538878	3
2	41788	2.538296538878	2
2	41994	2.539363762144	3
2	42067	2.540035762144	2
2	42138	2.540344156059	3
2	42202	2.540792156059	2
2	42587	2.542825731919	3
2	42636	2.543073731919	2
2	43184	2.545925336504	3
2	43286	2.546597336504	2
2	44341	2.552670755953	3
2	44382	2.552918755953	2
2	44571	2.554010066916	3
2	44680	2.554682066916	2
2	45732	2.560817992056	3
2	45783	2.561065992056	2
2	46142	2.563237301806	3
2	46244	2.563909301806	2
2	46786	2.566961954825	3
2	46814	2.567209954825	2
2	47702	2.572265207198	3
2	47793	2.572937207198	2
2	48159	2.575008606881	3
2	48210	2.575256606881	2
2	48576	2.577368006323	3
2	48655	2.578040006323	2
2	48845	2.579050396809	3
2	48896	2.579298396809	2
2	49089	2.580391045517	3
2	49195	2.581063045517	2
2	49544	2.583211693962	3
2	49594	2.583459693962	2
2	50482	2.588554608852	3
2	50561	2.589226608852	2
2	50646	2.58959499837	3
2	50755	2.59026699837	2
2	51645	2.595362255551	3
2	51675	2.595610255551	2
2	51708	2.595700255551	3
2	51797	2.596372255551	2
2	52331	2.599388326736	3
2	52361	2.599636326736	2
2	52675	2.601409630981	3
2	52727	2.601657630981	2
2	52904	2.602708934977	3
2	53005	2.603380934977	2
2	53422	2.605731829881	3
2	53511	2.606403829881	2
2	53867	2.608396724087	3
2	53908	2.608644724087	2
2	53930	2.608734724087	3
2	54031	2.609406724087	2
2	55075	2.615540719587	3
2	55126	2.615788719587	2
2	55148	2.615858719587	3
2	55239	2.616530719587	2
2	59916	2.643896670819	3
2	59957	2.644144670819	2
2	60093	2.644877055651	3
2	60122	2.645125055651	2
2	60145	2.645195055651	3
2	60245	2.645867055651	2
2	61355	2.652223891005	3
2	61456	2.652895891005	2
2	61634	2.653908526813	3
2	61687	2.654156526813	2
2	61697	2.654206526813	3
2	61798	2.654878526813	2
2	63889	2.667060875543	3
2	63931	2.667308875543	2
2	63952	2.667378875543	3
2	64031	2.668050875543	2
2	66124	2.680217386045	3
2	66175	2.680465386045	2
2	67892	2.690549619585	3
2	67981	2.691221619585	2
2	68523	2.694254832073	3
2	68565	2.694502832073	2
2	68752	2.695575701305	3
2	68843	2.696247701305	2
2	69549	2.700264073808	3
2	69591	2.700512073808	2
2	69612	2.700562073808	3
2	69691	2.701234073808	2
2	70413	2.7053111141	3
2	70453	2.7055591141	2
2	70921	2.708314650362	3
2	70973	2.708562650362	2
2	70984	2.708632650362	3
2	71085	2.709304650362	2
2	71519	2.711717434353	3
2	71613	2.712389434353	2
2	73001	2.72052549239	3
2	73040	2.72077349239	2
2	74206	2.727553294921	3
2	74247	2.727801294921	2
2	74269	2.727871294921	3
2	74360	2.728543294921	2
2	74445	2.72891248112	3
2	74534	2.72958448112	2
2	75233	2.733637683177	3
2	75285	2.733885683177	2
2	75591	2.735696305009	3
2	75620	2.735944305009	2
2	75642	2.736014305009	3
2	75743	2.736686305009	2
2	75933	2.737696682588	3
2	75962	2.737944682588	2
2	76006	2.738074682588	3
2	76085	2.738746682588	2
2	76785	2.7426989765	3
2	76826	2.7429469765	2
2	76848	2.7430369765	3
2	76949	2.7437089765	2
2	77012	2.744037353571	3
2	77114	2.744709353571	2
2	77647	2.747744128167	3
2	77687	2.747992128167	2
2	77890	2.749064983579	3
2	77985	2.749736983579	2
2	78407	2.752186182597	3
2	78508	2.752858182597	2
2	78686	2.753909465866	3
2	78738	2.754157465866	2
2	79257	2.757252663459	3
2	79358	2.757924663459	2
2	79963	2.761278099831	3
2	80042	2.761950099831	2
2	80751	2.765984871495	3
2	80793	2.766232871495	2
2	81093	2.768007722162	3
2	81145	2.768255722162	2
2	81503	2.770348577236	3
2	81609	2.771020577236	2
2	82020	2.773429098174	3
2	82121	2.774101098174	2
2	82184	2.774410275486	3
2	82285	2.775082275486	2
2	82996	2.779097146554	3
2	83037	2.779345146554	2
2	83059	2.779395146554	3
2	83160	2.780067146554	2
3	0	0	0
4	0	0	0
4	0	0	2
4	229	2.14585290555	3
4	261	2.14630090555	2
4	286	2.14641090555	3
4	323	2.14685890555	2
4	345	2.14694890555	3
4	374	2.14739690555	2
4	448	2.147927174624	3
4	474	2.148175174624	2
4	543	2.148723610072	3
4	571	2.148971610072	2
4	588	2.149101610072	3
4	637	2.149773610072	2
4	747	2.150765879143	3
4	770	2.151013879143	2
4	786	2.151063879143	3
4	832	2.151735879143	2
4	963	2.152504505435	3
4	981	2.152752505435	2
4	998	2.152842505435	3
4	1051	2.153514505435	2
4	1106	2.153844774503	3
4	1159	2.154516774503	2
4	1273	2.155529043569	3
4	1303	2.155777043569	2
4	1319	2.155927043569	3
4	1373	2.156599043569	2
4	1489	2.157631312633	3
4	1519	2.157879312633	2
4	1536	2.158029312633	3
4	1590	2.158701312633	2
4	1647	2.159011581695	3
4	1700	2.159683581695	2
4	1816	2.160695850756	3
4	1842	2.160943850756	2
4	1858	2.160993850756	3
4	1912	2.161665850756	2
4	1962	2.161996119815	3
4	2017	2.162668119815	2
4	2073	2.162976553571	3
4	2116	2.163648553571	2
4	2177	2.163976987211	3
4	2226	2.164648987211	2
4	2353	2.165701689508	3
4	2373	2.165949689508	2
4	2389	2.166019689508	3
4	2443	2.166691689508	2
4	2499	2.167000122788	3
4	2553	2.167672122788	2
4	2668	2.168682555933	3
4	2693	2.168930555933	2
4	2777	2.169704824985	3
4	2797	2.169952824985	2
4	2813	2.170022824985	3
4	2867	2.170694824985	2
4	2989	2.171745257771	3
4	3013	2.171993257771	2
4	3096	2.172807526821	3
4	3127	2.173055526821	2
4	3204	2.173789795869	3
4	3224	2.174037795869	2
4	3246	2.174107795869	3
4	3294	2.174779795869	2
4	3350	2.175128228195	3
4	3404	2.175800228195	2
4	3460	2.176110497241	3
4	3508	2.176782497241	2
4	3630	2.177792929313	3
4	3649	2.178040929313	2
4	3672	2.178110929313	3
4	3720	2.178782929313	2
4	3842	2.179815554553	3
4	3873	2.180063554553	2
4	3884	2.180133554553	3
4	3932	2.180805554553	2
4	4054	2.181818254943	3
4	4084	2.182066254943	2
4	4156	2.182819263735	3
4	4186	2.183067263735	2
4	4264	2.183821532775	3
4	4295	2.184069532775	2
4	4311	2.184179532775	3
4	4354	2.184851532775	2
4	4415	2.185159963919	3
4	4464	2.185831963919	2
4	4580	2.186842972711	3
4	4610	2.187090972711	2
4	4622	2.187140972711	3
4	4676	2.187812972711	2
4	4792	2.188825241749	3
4	4823	2.189073241749	2
4	4905	2.18986567237	3
4	4930	2.19011367237	2
4	5002	2.190846102872	3
4	5032	2.191094102872	2
4	5049	2.191204102872	3
4	5103	2.191876102872	2
4	5225	2.192908371907	3
4	5250	2.193156371907	2
4	5261	2.193246371907	3
4	5315	2.193918371907	2
4	5376	2.194287380699	3
4	5438	2.194959380699	2
4	5549	2.196086671402	3
4	5568	2.196334671402	2
4	5657	2.197167101173	3
4	5681	2.197415101173	2
4	5765	2.198187530823	3
4	5783	2.198435530823	2
4	5806	2.198505530823	3
4	5855	2.199177530823	2
4	5910	2.199527799854	3
4	5966	2.200199799854	2
4	6082	2.201190808646	3
4	6106	2.201438808646	2
4	6123	2.201488808646	3
4	6178	2.202160808646	2
4	6294	2.203193432985	3
4	6319	2.203441432985	2
4	6402	2.204214441777	3
4	6431	2.204462441777	2
4	6443	2.204532441777	3
4	6492	2.205204441777	2
4	6613	2.206217139398	3
4	6643	2.206465139398	2
4	6726	2.207279408426	3
4	6746	2.207527408426	2
4	6762	2.207597408426	3
4	6816	2.208269408426	2
4	6938	2.209260417218	3
4	6957	2.209508417218	2
4	6974	2.209638417218	3
4	7028	2.210310417218	2
4	7150	2.21132142601	3
4	7174	2.21156942601	2
4	7197	2.21173942601	3
4	7245	2.21241142601	2
4	7301	2.212739853953	3
4	7355	2.213411853953	2
4	7471	2.214442862745	3
4	7501	2.214690862745	2
4	7513	2.214740862745	3
4	7567	2.215412862745	2
4	7623	2.215721871537	3
4	7671	2.216393871537	2
4	7727	2.216722880329	3
4	7781	2.217394880329	2
4	7897	2.218407149353	3
4	7928	2.218655149353	2
4	8005	2.219407576549	3
4	8035	2.219655576549	2
4	8052	2.219805576549	3
4	8106	2.220477576549	2
4	8222	2.221468585341	3
4	8247	2.221716585341	2
4	8264	2.221786585341	3
4	8318	2.222458585341	2
4	8429	2.22344994572	3
4	8459	2.22369794572	2
4	8542	2.224490372336	3
4	8561	2.224738372336	2
4	8578	2.224848372336	3
4	8632	2.225520372336	2
4	8754	2.226531381128	3
4	8778	2.226779381128	2
4	8801	2.226869381128	3
4	8844	2.227541381128	2
4	8905	2.22789038992	3
4	8959	2.22856238992	2
4	9015	2.228870816009	3
4	9058	2.229542816009	2
4	9185	2.230574175289	3
4	9204	2.230822175289	2
4	9287	2.231574601093	3
4	9312	2.231822601093	2
4	9395	2.232595609885	3
4	9414	2.232843609885	2
4	9437	2.232913609885	3
4	9485	2.233585609885	2
4	9607	2.23463603538	3
4	9637	2.23488403538	2
4	9709	2.23563646072	3
4	9739	2.23588446072	2
4	9756	2.23595446072	3
4	9805	2.23662646072	2
4	9932	2.237657469512	3
4	9951	2.237905469512	2
4	9968	2.237995469512	3
4	10022	2.238667469512	2
4	10144	2.239718478304	3
4	10168	2.239966478304	2
4	10180	2.240036478304	3
4	10234	2.240708478304	2
4	10295	2.241097487096	3
4	10349	2.241769487096	2
4	10465	2.242800495888	3
4	10490	2.243048495888	2
4	10512	2.243198495888	3
4	10567	2.243870495888	2
4	10689	2.244901852948	3
4	10707	2.245149852948	2
4	10724	2.245219852948	3
4	10779	2.245891852948	2
4	10901	2.246922277048	3
4	10924	2.247170277048	2
4	10947	2.247280277048	3
4	10991	2.247952277048	2
4	11051	2.24826128584	3
4	11102	2.24893328584	2
4	11222	2.249963709596	3
4	11247	2.250211709596	2
4	11331	2.251004718388	3
4	11349	2.251252718388	2
4	11372	2.251342718388	3
4	11420	2.252014718388	2
4	11481	2.25238498741	3
4	11536	2.25305698741	2
4	11646	2.254049679668	3
4	11676	2.254297679668	2
4	11754	2.25505194869	3
4	11785	2.25529994869	2
4	11801	2.25536994869	3
4	11844	2.25604194869	2
4	11905	2.256450957482	3
4	11959	2.257122957482	2
4	12081	2.258135579728	3
4	12106	2.258383579728	2
4	12183	2.25913658852	3
4	12213	2.25938458852	2
4	12230	2.25949458852	3
4	12284	2.26016658852	2
4	12400	2.261157011015	3
4	12425	2.261405011015	2
4	12442	2.261475011015	3
4	12491	2.262147011015	2
4	12612	2.263158019807	3
4	12637	2.263406019807	2
4	12720	2.264159028599	3
4	12739	2.264407028599	2
4	12762	2.264517028599	3
4	12810	2.265189028599	2
4	12866	2.265498037391	3
4	12920	2.266170037391	2
4	13036	2.267221046183	3
4	13066	2.267469046183	2
4	13083	2.267599046183	3
4	13137	2.268271046183	2
4	13259	2.269282054975	3
4	13278	2.269530054975	2
4	13361	2.270263063767	3
4	13386	2.270511063767	2
4	13408	2.270661063767	3
4	13457	2.271333063767	2
4	13573	2.272344072559	3
4	13603	2.272592072559	2
4	13620	2.272662072559	3
4	13669	2.273334072559	2
4	13730	2.273682493599	3
4	13778	2.274354493599	2
4	13895	2.275345502391	3
4	13919	2.275593502391	2
4	14002	2.276365923152	3
4	14027	2.276613923152	2
4	14044	2.276723923152	3
4	14098	2.277395923152	2
4	14154	2.277744931944	3
4	14202	2.278416931944	2
4	14324	2.279427940736	3
4	14354	2.279675940736	2
4	14366	2.279745940736	3
4	14414	2.280417940736	2
4	14536	2.281408360972	3
4	14566	2.281656360972	2
4	14649	2.282469369764	3
4	14668	2.282717369764	2
4	14685	2.282827369764	3
4	14739	2.283499369764	2
4	14795	2.283828378556	3
4	14849	2.284500378556	2
4	14970	2.285571387348	3
4	14995	2.285819387348	2
4	15073	2.28655239614	3
4	15097	2.28680039614	2
4	15120	2.28691039614	3
4	15168	2.28758239614	2
4	15230	2.287932665176	3
4	15290	2.288604665176	2
4	15336	2.289112665176	3
4	15391	2.289784665176	2
4	15507	2.290797286195	3
4	15532	2.291045286195	2
4	15553	2.291215286195	3
4	15608	2.291887286195	2
4	15730	2.292878635868	3
4	15748	2.293126635868	2
4	15765	2.293216635868	3
4	15820	2.293888635868	2
4	15875	2.294217054634	3
4	15930	2.294889054634	2
4	16046	2.295900403793	3
4	16070	2.296148403793	2
4	16154	2.296901412585	3
4	16172	2.297149412585	2
4	16256	2.297921830966	3
4	16285	2.298169830966	2
4	16302	2.298259830966	3
4	16352	2.298931830966	2
4	16412	2.299300249179	3
4	16460	2.299972249179	2
4	16517	2.300321257971	3
4	16571	2.300993257971	2
4	16687	2.30200367594	3
4	16712	2.30225167594	2
4	16795	2.303004684732	3
4	16814	2.303252684732	2
4	16897	2.304025102444	3
4	16927	2.304273102444	2
4	16944	2.304383102444	3
4	16998	2.305055102444	2
4	17054	2.305383519987	3
4	17108	2.306055519987	2
4	17224	2.307086528779	3
4	17249	2.307334528779	2
4	17266	2.307404528779	3
4	17320	2.308076528779	2
4	17436	2.309106945974	3
4	17466	2.309354945974	2
4	17544	2.310107363022	3
4	17568	2.310355363022	2
4	17591	2.310485363022	3
4	17639	2.311157363022	2
4	17695	2.311486371814	3
4	17749	2.312158371814	2
4	17865	2.313169380606	3
4	17890	2.313417380606	2
4	17973	2.314190389398	3
4	17992	2.314438389398	2
4	18015	2.314508389398	3
4	18063	2.315180389398	2
4	18119	2.31554939819	3
4	18173	2.31622139819	2
4	18289	2.31721366725	3
4	18320	2.31746166725	2
4	18336	2.31757166725	3
4	18385	2.31824366725	2
4	18501	2.319234676042	3
4	18531	2.319482676042	2
4	18548	2.319572676042	3
4	18597	2.320244676042	2
4	18713	2.321235091919	3
4	18743	2.321483091919	2
4	18755	2.321533091919	3
4	18809	2.322205091919	2
4	18925	2.323216100711	3
4	18955	2.323464100711	2
4	19033	2.324197109503	3
4	19052	2.324445109503	2
4	19080	2.324595109503	3
4	19134	2.325267109503	2
4	19184	2.325636118295	3
4	19238	2.326308118295	2
4	19299	2.326658387366	3
4	19348	2.327330387366	2
4	19398	2.327638802495	3
4	19452	2.328310802495	2
4	19574	2.329321811287	3
4	19598	2.329569811287	2
4	19676	2.330302820079	3
4	19701	2.330550820079	2
4	19723	2.330660820079	3
4	19772	2.331332820079	2
4	19888	2.332343234761	3
4	19918	2.332591234761	2
4	19996	2.333345503839	3
4	20021	2.333593503839	2
4	20043	2.333723503839	3
4	20091	2.334395503839	2
4	20213	2.335386512631	3
4	20232	2.335634512631	2
4	20315	2.336406926843	3
4	20345	2.336654926843	2
4	20362	2.336764926843	3
4	20411	2.337436926843	2
4	20538	2.338469195928	3
4	20558	2.338717195928	2
4	20574	2.338787195928	3
4	20628	2.339459195928	2
4	20684	2.339809465015	3
4	20738	2.340481465015	2
4	20854	2.341532473807	3
4	20884	2.341780473807	2
4	20901	2.341870473807	3
4	20950	2.342542473807	2
4	21066	2.343532887291	3
4	21096	2.343780887291	2
4	21108	2.343830887291	3
4	21170	2.344502887291	2
4	21216	2.344870887291	3
4	21259	2.345542887291	2
4	21381	2.346533896083	3
4	21405	2.346781896083	2
4	21428	2.346871896083	3
4	21471	2.347543896083	2
4	21527	2.347852309051	3
4	21581	2.348524309051	2
4	21703	2.349555650059	3
4	21728	2.349803650059	2
4	21745	2.349873650059	3
4	21794	2.350545650059	2
4	21915	2.351556658851	3
4	21940	2.351804658851	2
4	21957	2.351914658851	3
4	22011	2.352586658851	2
4	22067	2.352895071285	3
4	22115	2.353567071285	2
4	22238	2.354599689948	3
4	22256	2.354847689948	2
4	22279	2.354937689948	3
4	22335	2.355609689948	2
4	22447	2.356660102043	3
4	22472	2.356908102043	2
4	22560	2.357802371155	3
4	22580	2.358050371155	2
4	22602	2.358140371155	3
4	22651	2.358812371155	2
4	22773	2.359844989628	3
4	22803	2.360092989628	2
4	22819	2.360202989628	3
4	22874	2.360874989628	2
4	22990	2.361885401171	3
4	23014	2.362133401171	2
4	23098	2.362886409963	3
4	23116	2.363134409963	2
4	23144	2.363264409963	3
4	23188	2.363936409963	2
4	23243	2.364245418755	3
4	23298	2.364917418755	2
4	23414	2.365907829874	3
4	23443	2.366155829874	2
4	23455	2.366205829874	3
4	23509	2.366877829874	2
4	23625	2.367928838666	3
4	23655	2.368176838666	2
4	23672	2.368266838666	3
4	23721	2.368938838666	2
4	23842	2.369989847458	3
4	23867	2.370237847458	2
4	23950	2.37099085625	3
4	23969	2.37123885625	2
4	23992	2.37132885625	3
4	24040	2.37200085625	2
4	24162	2.372991865042	3
4	24181	2.373239865042	2
4	24209	2.373369865042	3
4	24252	2.374041865042	2
4	24379	2.375054134183	3
4	24405	2.375302134183	2
4	24421	2.375452134183	3
4	24475	2.376124134183	2
4	24597	2.377214544126	3
4	24626	2.377462544126	2
4	24638	2.377532544126	3
4	24693	2.378204544126	2
4	24748	2.378534813273	3
4	24797	2.379206813273	2
4	24918	2.380197822065	3
4	24937	2.380445822065	2
4	24960	2.380495822065	3
4	25008	2.381167822065	2
4	25130	2.382200091218	3
4	25150	2.382448091218	2
4	25172	2.382538091218	3
4	25220	2.383210091218	2
4	25276	2.383538500445	3
4	25338	2.384210500445	2
4	25458	2.385240909552	3
4	25488	2.385488909552	2
4	25505	2.385618909552	3
4	25559	2.386290909552	2
4	25615	2.386599918344	3
4	25669	2.387271918344	2
4	25719	2.387580927136	3
4	25773	2.388252927136	2
4	25895	2.389285604733	3
4	25914	2.389533604733	2
4	25942	2.389683604733	3
4	25990	2.390355604733	2
4	26107	2.391346613525	3
4	26131	2.391594613525	2
4	26154	2.391664613525	3
4	26197	2.392336613525	2
4	26253	2.392646882699	3
4	26307	2.393318882699	2
4	26424	2.39433149992	3
4	26454	2.39457949992	2
4	26532	2.395333769099	3
4	26557	2.395581769099	2
4	26639	2.39637603828	3
4	26665	2.39662403828	2
4	26681	2.39669403828	3
4	26735	2.39736603828	2
4	26851	2.398397372012	3
4	26876	2.398645372012	2
4	26898	2.398755372012	3
4	26947	2.399427372012	2
4	27064	2.400419989014	3
4	27095	2.400667989014	2
4	27106	2.400737989014	3
4	27160	2.401409989014	2
4	27276	2.402402605943	3
4	27301	2.402650605943	2
4	27384	2.403443013144	3
4	27414	2.403691013144	2
4	27431	2.403801013144	3
4	27485	2.404473013144	2
4	27601	2.405465282343	3
4	27627	2.405713282343	2
4	27698	2.406447551545	3
4	27729	2.406695551545	2
4	27745	2.406825551545	3
4	27799	2.407497551545	2
4	27921	2.408487958263	3
4	27940	2.408735958263	2
4	28023	2.409490227472	3
4	28049	2.409738227472	2
4	28065	2.409828227472	3
4	28119	2.410500227472	2
4	28235	2.411531236264	3
4	28265	2.411779236264	2
4	28282	2.411929236264	3
4	28336	2.412601236264	2
4	28392	2.412950245056	3
4	28440	2.413622245056	2
4	28562	2.414633253848	3
4	28592	2.414881253848	2
4	28609	2.414991253848	3
4	28663	2.415663253848	2
4	28780	2.416713659734	3
4	28809	2.416961659734	2
4	28887	2.417714668526	3
4	28911	2.417962668526	2
4	28934	2.418072668526	3
4	28978	2.418744668526	2
4	29043	2.419153677318	3
4	29093	2.419825677318	2
4	29209	2.420838293587	3
4	29238	2.421086293587	2
4	29322	2.421900562824	3
4	29347	2.422148562824	2
4	29363	2.422238562824	3
4	29418	2.422910562824	2
4	29467	2.423219571616	3
4	29522	2.423891571616	2
4	29644	2.424942580408	3
4	29667	2.425190580408	2
4	29679	2.425240580408	3
4	29733	2.425912580408	2
4	29855	2.4269035892	3
4	29874	2.4271515892	2
4	29957	2.427924597992	3
4	29987	2.428172597992	2
4	30004	2.428262597992	3
4	30053	2.428934597992	2
4	30114	2.429304867247	3
4	30162	2.429976867247	2
4	30284	2.431029540528	3
4	30315	2.431277540528	2
4	30331	2.431367540528	3
4	30374	2.432039540528	2
4	30496	2.43305086906	3
4	30526	2.43329886906	2
4	30609	2.434091877852	3
4	30628	2.434339877852	2
4	30645	2.434449877852	3
4	30699	2.435121877852	2
4	30821	2.436112281787	3
4	30845	2.436360281787	2
4	30857	2.436450281787	3
4	30911	2.437122281787	2
4	31039	2.438174551064	3
4	31058	2.438422551064	2
4	31080	2.438472551064	3
4	31123	2.439144551064	2
4	31250	2.440155559856	3
4	31269	2.440403559856	2
4	31297	2.440573559856	3
4	31340	2.441245559856	2
4	31401	2.441615829143	3
4	31455	2.442287829143	2
4	31578	2.443320501149	3
4	31602	2.443568501149	2
4	31624	2.443658501149	3
4	31667	2.444330501149	2
4	31795	2.445381827865	3
4	31813	2.445629827865	2
4	31836	2.445719827865	3
4	31885	2.446391827865	2
4	32007	2.447384443191	3
4	32025	2.447632443191	2
4	32048	2.447742443191	3
4	32104	2.448414443191	2
4	32162	2.448902443191	3
4	32219	2.449574443191	2
4	32326	2.450626712499	3
4	32356	2.450874712499	2
4	32394	2.451324712499	3
4	32442	2.451996712499	2
4	32498	2.452345721291	3
4	32552	2.453017721291	2
4	32613	2.453366730083	3
4	32656	2.454038730083	2
4	32783	2.455071345138	3
4	32807	2.455319345138	2
4	32825	2.455389345138	3
4	32879	2.456061345138	2
4	32928	2.45639035393	3
4	32991	2.45706235393	2
4	33103	2.458210305768	3
4	33134	2.458458305768	2
4	33151	2.458588305768	3
4	33204	2.459260305768	2
4	33320	2.460292920641	3
4	33345	2.460540920641	2
4	33428	2.461293929433	3
4	33446	2.461541929433	2
4	33474	2.461671929433	3
4	33519	2.462343929433	2
4	33579	2.462672330696	3
4	33637	2.463344330696	2
4	33681	2.463692330696	3
4	33738	2.464364330696	2
4	33778	2.464692330696	3
4	33833	2.465364330696	2
4	33888	2.465673339488	3
4	33932	2.466345339488	2
4	33997	2.466735608523	3
4	34065	2.467407608523	2
4	34168	2.468397953836	3
4	34193	2.468645953836	2
4	34276	2.469418354461	3
4	34306	2.469666354461	2
4	34378	2.470420623218	3
4	34409	2.470668623218	2
4	34486	2.47144163201	3
4	34516	2.47168963201	2
4	34538	2.47185963201	3
4	34587	2.47253163201	2
4	34648	2.472940640802	3
4	34697	2.473612640802	2
4	34819	2.474623649594	3
4	34848	2.474871649594	2
4	34920	2.475604658386	3
4	34945	2.475852658386	2
4	34967	2.476002658386	3
4	35022	2.476674658386	2
4	35077	2.476983667178	3
4	35133	2.477655667178	2
4	35182	2.477985935331	3
4	35237	2.478657935331	2
4	35292	2.478986944123	3
4	35346	2.479658944123	2
4	35396	2.479967952915	3
4	35445	2.480639952915	2
4	35506	2.481008961707	3
4	35568	2.481680961707	2
4	35669	2.482748910636	3
4	35699	2.482996910636	2
4	35782	2.483809919428	3
4	35812	2.484057919428	2
4	35884	2.484812187063	3
4	35915	2.485060187063	2
4	35931	2.485170187063	3
4	35980	2.485842187063	2
4	36096	2.486833195855	3
4	36126	2.487081195855	2
4	36138	2.487131195855	3
4	36192	2.487803195855	2
4	36308	2.488814516253	3
4	36338	2.489062516253	2
4	36416	2.489834914911	3
4	36446	2.490082914911	2
4	36529	2.490855923703	3
4	36548	2.491103923703	2
4	36565	2.491193923703	3
4	36620	2.491865923703	2
4	36675	2.492216190748	3
4	36729	2.492888190748	2
4	36845	2.493900457701	3
4	36871	2.494148457701	2
4	36958	2.494982724547	3
4	36978	2.495230724547	2
4	37000	2.495300724547	3
4	37048	2.495972724547	2
4	37170	2.496983733339	3
4	37189	2.497231733339	2
4	37212	2.497281733339	3
4	37260	2.497953733339	2
4	37316	2.498282742131	3
4	37370	2.498954742131	2
4	37486	2.499966060908	3
4	37511	2.500214060908	2
4	37528	2.500324060908	3
4	37582	2.500996060908	2
4	37638	2.5013450697	3
4	37694	2.5020170697	2
4	37739	2.5024250697	3
4	37801	2.5030970697	2
4	37913	2.504164300149	3
4	37931	2.504412300149	2
4	37959	2.504642300149	3
4	38014	2.505314300149	2
4	38130	2.506324697274	3
4	38159	2.506572697274	2
4	38176	2.506722697274	3
4	38231	2.507394697274	2
4	38347	2.508406014779	3
4	38376	2.508654014779	2
4	38455	2.509407023571	3
4	38484	2.509655023571	2
4	38501	2.509805023571	3
4	38556	2.510477023571	2
4	38672	2.511528032363	3
4	38701	2.511776032363	2
4	38718	2.511866032363	3
4	38768	2.512538032363	2
4	38900	2.513670297784	3
4	38919	2.513918297784	2
4	38935	2.513988297784	3
4	38990	2.514660297784	2
4	39112	2.515711306576	3
4	39135	2.515959306576	2
4	39158	2.516069306576	3
4	39202	2.516741306576	2
4	39262	2.517071571687	3
4	39312	2.517743571687	2
4	39433	2.518836180597	3
4	39463	2.519084180597	2
4	39541	2.519837189389	3
4	39570	2.520085189389	2
4	39587	2.520155189389	3
4	39631	2.520827189389	2
4	39758	2.52185945417	3
4	39783	2.52210745417	2
4	39799	2.52221745417	3
4	39854	2.52288945417	2
4	39970	2.523939849649	3
4	39999	2.524187849649	2
4	40016	2.524257849649	3
4	40066	2.524929849649	2
4	40181	2.525940858441	3
4	40211	2.526188858441	2
4	40223	2.526238858441	3
4	40277	2.526910858441	2
4	40399	2.528003122748	3
4	40424	2.528251122748	2
4	40440	2.528341122748	3
4	40494	2.529013122748	2
4	40550	2.52934213154	3
4	40598	2.53001413154	2
4	40654	2.530343140332	3
4	40708	2.531015140332	2
4	40764	2.531323535076	3
4	40812	2.531995535076	2
4	40940	2.533025929715	3
4	40992	2.533273929715	2
4	41097	2.534026324229	3
4	41144	2.534274324229	2
4	41156	2.534344324229	3
4	41251	2.535016324229	2
4	41419	2.536007333021	3
4	41466	2.536255333021	2
4	41585	2.537048341813	3
4	41634	2.537296341813	2
4	41654	2.537366341813	3
4	41727	2.538038341813	2
4	42079	2.540045959117	3
4	42126	2.540293959117	2
4	42314	2.541121271903	3
4	42411	2.541793271903	2
4	42488	2.542143535072	3
4	42573	2.542815535072	2
4	42956	2.544606131023	3
4	43007	2.544854131023	2
4	43122	2.545607139815	3
4	43172	2.545855139815	2
4	43298	2.546607533178	3
4	43348	2.546855533178	2
4	43360	2.546945533178	3
4	43450	2.547617533178	2
4	43642	2.54862854197	3
4	43694	2.54887654197	2
4	43831	2.549669550762	3
4	43859	2.549917550762	2
4	43881	2.550027550762	3
4	43983	2.550699550762	2
4	44175	2.551690559554	3
4	44204	2.551938559554	2
4	44226	2.551988559554	3
4	44327	2.552660559554	2
4	44498	2.553651870592	3
4	44549	2.553899870592	2
4	44696	2.554692263224	3
4	44738	2.554940263224	2
4	44759	2.555030263224	3
4	44860	2.555702263224	2
4	45038	2.556694525306	3
4	45080	2.556942525306	2
4	45101	2.557052525306	3
4	45202	2.557724525306	2
4	45380	2.558716787232	3
4	45432	2.558964787232	2
4	45556	2.559737796024	3
4	45595	2.559985796024	2
4	45629	2.560135796024	3
4	45718	2.560807796024	2
4	45805	2.561156188058	3
4	45904	2.561828188058	2
4	46091	2.562899105898	3
4	46120	2.563147105898	2
4	46256	2.563919497699	3
4	46306	2.564167497699	2
4	46328	2.564257497699	3
4	46419	2.564929497699	2
4	46597	2.565921759068	3
4	46649	2.566169759068	2
4	46670	2.566279759068	3
4	46762	2.566951759068	2
4	46941	2.567943068067	3
4	46992	2.568191068067	2
4	47119	2.568944076859	3
4	47158	2.569192076859	2
4	47285	2.569925085651	3
4	47336	2.570173085651	2
4	47463	2.570946094443	3
4	47502	2.571194094443	2
4	47536	2.571264094443	3
4	47616	2.571936094443	2
4	47805	2.572947402689	3
4	47844	2.573195402689	2
4	47981	2.574008411481	3
4	48032	2.574256411481	2
4	48044	2.574326411481	3
4	48145	2.574998411481	2
4	48222	2.575346802251	3
4	48311	2.576018802251	2
4	48503	2.577029811043	3
4	48554	2.577277811043	2
4	48667	2.578050201588	3
4	48718	2.578298201588	2
4	48740	2.578368201588	3
4	48831	2.579040201588	2
4	48918	2.579388592	3
4	49019	2.580060592	2
4	49367	2.582151498924	3
4	49407	2.582399498924	2
4	49440	2.582529498924	3
4	49530	2.583201498924	2
4	49721	2.584192805616	3
4	49750	2.584440805616	2
4	49794	2.584590805616	3
4	49896	2.585262805616	2
4	50075	2.586253814408	3
4	50116	2.586501814408	2
4	50128	2.586551814408	3
4	50217	2.587223814408	2
4	50573	2.589236803626	3
4	50624	2.589484803626	2
4	50771	2.590277193098	3
4	50813	2.590525193098	2
4	50834	2.590615193098	3
4	50936	2.591287193098	2
4	51186	2.592658136226	3
4	51277	2.593330136226	2
4	51457	2.594341145018	3
4	51508	2.594589145018	2
4	51872	2.596701365985	3
4	51973	2.597373365985	2
4	52050	2.597703624865	3
4	52139	2.598375624865	2
4	52394	2.599726521039	3
4	52483	2.600398521039	2
4	52738	2.601707825197	3
4	52827	2.602379825197	2
4	53359	2.605393635837	3
4	53389	2.605641635837	2
4	53764	2.607714530142	3
4	53853	2.608386530142	2
4	54043	2.609416917988	3
4	54094	2.609664917988	2
4	54116	2.609754917988	3
4	54195	2.610426917988	2
4	54573	2.612459517155	3
4	54603	2.612707517155	2
4	54909	2.614540525947	3
4	54948	2.614788525947	2
4	54982	2.614858525947	3
4	55061	2.615530525947	2
4	55251	2.616540913184	3
4	55290	2.616788913184	2
4	55334	2.616958913184	3
4	55413	2.617630913184	2
4	55678	2.618961511617	3
4	55757	2.619633511617	2
4	55834	2.619942520409	3
4	55935	2.620614520409	2
4	56137	2.621667118614	3
4	56166	2.621915118614	2
4	56706	2.624971235885	3
4	56785	2.625643235885	2
4	57048	2.626994174492	3
4	57157	2.627666174492	2
4	57322	2.628734104175	3
4	57373	2.628982104175	2
4	57850	2.631818630596	3
4	57902	2.632066630596	2
4	57913	2.632136630596	3
4	58002	2.632808630596	2
4	58607	2.636203084913	3
4	58708	2.636875084913	2
4	58773	2.637184093705	3
4	58875	2.637856093705	2
4	59066	2.638908690115	3
4	59105	2.639156690115	2
4	59410	2.640871626917	3
4	59439	2.641119626917	2
4	59574	2.641873882421	3
4	59616	2.642121882421	2
4	59801	2.643214478369	3
4	59902	2.643886478369	2
4	59979	2.644194863241	3
4	60079	2.644866863241	2
4	60258	2.645877248019	3
4	60298	2.646125248019	2
4	60441	2.646898256811	3
4	60470	2.647146256811	2
4	60492	2.647216256811	3
4	60593	2.647888256811	2
4	60785	2.648879265603	3
4	60814	2.649127265603	2
4	60950	2.649901520494	3
4	60992	2.650149520494	2
4	61468	2.652906083085	3
4	61507	2.653154083085	2
4	62037	2.656189310522	3
4	62137	2.656861310522	2
4	62317	2.657872319314	3
4	62358	2.658120319314	2
4	62381	2.658190319314	3
4	62481	2.658862319314	2
4	62911	2.661273253462	3
4	62990	2.661945253462	2
4	63359	2.663958187233	3
4	63400	2.664206187233	2
4	63422	2.664296187233	3
4	63523	2.664968187233	2
4	64116	2.668379978976	3
4	64207	2.669051978976	2
4	64294	2.669380987768	3
4	64395	2.670052987768	2
4	64573	2.671065241068	3
4	64615	2.671313241068	2
4	64749	2.672067494266	3
4	64779	2.672315494266	2
4	64983	2.673428087038	3
4	65089	2.674100087038	2
4	65315	2.675450010477	3
4	65416	2.676122010477	2
4	65782	2.678174602891	3
4	65811	2.678422602891	2
4	66009	2.679535195067	3
4	66110	2.680207195067	2
4	66187	2.680535576996	3
4	66276	2.681207576996	2
4	66358	2.681537829458	3
4	66464	2.682209829458	2
4	66524	2.682517829458	3
4	66613	2.683189829458	2
4	66804	2.684222081755	3
4	66855	2.684470081755	2
4	66967	2.68520433395	3
4	67009	2.68545233395	2
4	67030	2.68554233395	3
4	67131	2.68621433395	2
4	67208	2.68654458603	3
4	67297	2.68721658603	2
4	67653	2.689249177216	3
4	67705	2.689497177216	2
4	67829	2.690231429029	3
4	67881	2.690479429029	2
4	67993	2.691231810129	3
4	68044	2.691479810129	2
4	68056	2.691549810129	3
4	68158	2.692221810129	2
4	68928	2.696576801986	3
4	69007	2.697248801986	2
4	69383	2.699262973518	3
4	69413	2.699510973518	2
4	69776	2.701583174002	3
4	69877	2.702255174002	2
4	69954	2.702604182794	3
4	70055	2.703276182794	2
4	70120	2.703586433576	3
4	70221	2.704258433576	2
4	70577	2.706333550858	3
4	70629	2.706581550858	2
4	70640	2.706651550858	3
4	70741	2.707323550858	2
4	71514	2.711717248532	3
4	71611	2.712389248532	2
4	71795	2.713457870231	3
4	71837	2.713705870231	2
4	72315	2.71650079722	3
4	72344	2.71674879722	2
4	72886	2.719843302976	3
4	72987	2.720515302976	2
4	73052	2.720843681779	3
4	73169	2.721515681779	2
4	73246	2.721883681779	3
4	73348	2.722555681779	2
4	73588	2.723886607662	3
4	73697	2.724558607662	2
4	73759	2.724866607662	3
4	73838	2.725538607662	2
4	73915	2.725848856754	3
4	74016	2.726520856754	2
4	74103	2.726871105772	3
4	74182	2.727543105772	2
4	74546	2.729594670193	3
4	74587	2.729842670193	2
4	74609	2.729912670193	3
4	74710	2.730584670193	2
4	75476	2.735014116164	3
4	75577	2.735686116164	2
4	75755	2.736696493817	3
4	75796	2.736944493817	2
4	75818	2.737014493817	3
4	75919	2.737686493817	2
4	76285	2.739757779122	3
4	76314	2.740005779122	2
4	76348	2.740055779122	3
4	76427	2.740727779122	2
4	76619	2.741718787914	3
4	76658	2.741966787914	2
4	76670	2.742016787914	3
4	76771	2.742688787914	2
4	76961	2.743719165048	3
4	77000	2.743967165048	2
4	77126	2.744719542082	3
4	77176	2.744967542082	2
4	77188	2.745037542082	3
4	77289	2.745709542082	2
4	77885	2.749064896878	3
4	77983	2.749736896878	2
4	78178	2.750865414483	3
4	78208	2.751113414483	2
4	78520	2.75286837081	3
4	78549	2.75311637081	2
4	78862	2.754911896156	3
4	78902	2.755159896156	2
4	78913	2.755249896156	3
4	79014	2.755921896156	2
4	79443	2.758253758122	3
4	79534	2.758925758122	2
4	80241	2.762982768825	3
4	80271	2.763230768825	2
4	80304	2.763300768825	3
4	80393	2.763972768825	2
4	80585	2.765003777617	3
4	80614	2.765251777617	2
4	81156	2.768345909806	3
4	81257	2.769017909806	2
4	81498	2.770348492611	3
4	81607	2.771020492611	2
4	82360	2.775411368476	3
4	82461	2.776083368476	2
4	82704	2.777433950486	3
4	82805	2.778105950486	2
4	82870	2.778414959278	3
4	82982	2.779086959278	2
4	83172	2.780077333795	3
4	83201	2.780325333795	2
4	83337	2.781079578731	3
4	83378	2.781327578731	2
4	83399	2.781417578731	3
4	83499	2.782089578731	2
4	83565	2.782419823551	3
4	83665	2.783091823551	2
4	83909	2.784422404841	3
5	0	0	0
6	0	0	0
6	0	0	2
6	879	2.152046001039	3
6	920	2.152494001039	2
6	3734	2.178793433709	3
6	3760	2.179041433709	2
6	4096	2.182136759339	3
6	4144	2.182808759339	2
6	4478	2.185842468315	3
6	4509	2.186090468315	2
6	4525	2.186160468315	3
6	4568	2.186832468315	2
6	5329	2.193928876303	3
6	5360	2.194176876303	2
6	5483	2.195404167006	3
6	5537	2.196076167006	2
6	5980	2.20021030425	3
6	6010	2.20045830425	2
6	6021	2.20050830425	3
6	6070	2.20118030425	2
6	6192	2.202171313042	3
6	6211	2.202419313042	2
6	6335	2.203531937381	3
6	6390	2.204203937381	2
6	6830	2.208279912822	3
6	6856	2.208527912822	2
6	6872	2.208577912822	3
6	6915	2.209249912822	2
6	7042	2.210320921614	3
6	7073	2.210568921614	2
6	7084	2.210638921614	3
6	7138	2.211310921614	2
6	7369	2.213422358349	3
6	7400	2.213670358349	2
6	7416	2.213760358349	3
6	7459	2.214432358349	2
6	7581	2.215423367141	3
6	7612	2.215671367141	2
6	7685	2.216404375933	3
6	7711	2.216652375933	2
6	8120	2.220488080945	3
6	8140	2.220736080945	2
6	8156	2.220786080945	3
6	8210	2.221458080945	2
6	8368	2.222767441324	3
6	8417	2.223439441324	2
6	8646	2.225530876732	3
6	8677	2.225778876732	2
6	8688	2.225848876732	3
6	8742	2.226520876732	2
6	8858	2.227551885524	3
6	8889	2.227799885524	2
6	9119	2.229891670893	3
6	9173	2.230563670893	2
6	9329	2.231913105489	3
6	9383	2.232585105489	2
6	9819	2.236636965116	3
6	9850	2.236884965116	2
6	9866	2.236974965116	3
6	9909	2.237646965116	2
6	10036	2.238677973908	3
6	10062	2.238925973908	2
6	10078	2.239035973908	3
6	10132	2.239707973908	2
6	10248	2.2407189827	3
6	10279	2.2409669827	2
6	10363	2.241779991492	3
6	10383	2.242027991492	2
6	10405	2.242117991492	3
6	10453	2.242789991492	2
6	10622	2.244219348552	3
6	10677	2.244891348552	2
6	11010	2.247962781444	3
6	11035	2.248210781444	2
6	11264	2.250322213992	3
6	11319	2.250994213992	2
6	11858	2.256052453086	3
6	11889	2.256300453086	2
6	11973	2.257133461878	3
6	12004	2.257381461878	2
6	12128	2.258454084124	3
6	12171	2.259126084124	2
6	12510	2.262157515411	3
6	12530	2.262405515411	2
6	12552	2.262475515411	3
6	12595	2.263147515411	2
6	12654	2.263476524203	3
6	12703	2.264148524203	2
6	12824	2.265199532995	3
6	12850	2.265447532995	2
6	12934	2.266180541787	3
6	12954	2.266428541787	2
6	12976	2.266538541787	3
6	13024	2.267210541787	2
6	13151	2.268281550579	3
6	13177	2.268529550579	2
6	13193	2.268599550579	3
6	13247	2.269271550579	2
6	13295	2.269580559371	3
6	13344	2.270252559371	2
6	13471	2.271343568163	3
6	13496	2.271591568163	2
6	13518	2.271661568163	3
6	13561	2.272333568163	2
6	13792	2.274364997995	3
6	13818	2.274612997995	2
6	13834	2.274662997995	3
6	13883	2.275334997995	2
6	14112	2.277406427548	3
6	14143	2.277654427548	2
6	14216	2.27842743634	3
6	14247	2.27867543634	2
6	14258	2.27874543634	3
6	14312	2.27941743634	2
6	14583	2.281786865368	3
6	14637	2.282458865368	2
6	14753	2.28350987416	3
6	14784	2.28375787416	2
6	14863	2.284510882952	3
6	14888	2.284758882952	2
6	14910	2.284888882952	3
6	14958	2.285560882952	2
6	15012	2.285869891744	3
6	15061	2.286541891744	2
6	15405	2.289795169572	3
6	15424	2.290043169572	2
6	15663	2.292196131472	3
6	15718	2.292868131472	2
6	15944	2.29489955903	3
6	15963	2.29514755903	2
6	16087	2.296218908189	3
6	16142	2.296890908189	2
6	16474	2.299982753575	3
6	16501	2.300230753575	2
6	16729	2.302322180336	3
6	16783	2.302994180336	2
6	17122	2.306066024383	3
6	17142	2.306314024383	2
6	17158	2.306404024383	3
6	17212	2.307076024383	2
6	17653	2.311167867418	3
6	17679	2.311415867418	2
6	17763	2.31216887621	3
6	17783	2.31241687621	2
6	17805	2.31248687621	3
6	17853	2.31315887621	2
6	17907	2.313507885002	3
6	17961	2.314179885002	2
6	18077	2.315190893794	3
6	18103	2.315438893794	2
6	18404	2.318254171646	3
6	18430	2.318502171646	2
6	18441	2.318552171646	3
6	18489	2.319224171646	2
6	18823	2.322215596315	3
6	18854	2.322463596315	2
6	18865	2.322533596315	3
6	18913	2.323205596315	2
6	18967	2.323514605107	3
6	19021	2.324186605107	2
6	19148	2.325277613899	3
6	19168	2.325525613899	2
6	19466	2.328321306891	3
6	19497	2.328569306891	2
6	19508	2.328639306891	3
6	19562	2.329311306891	2
6	19610	2.329620315683	3
6	19664	2.330292315683	2
6	20105	2.334406008235	3
6	20136	2.334654008235	2
6	20147	2.334704008235	3
6	20201	2.335376008235	2
6	20752	2.340491969411	3
6	20772	2.340739969411	2
6	20788	2.340849969411	3
6	20842	2.341521969411	2
6	21278	2.345553391687	3
6	21304	2.345801391687	2
6	21315	2.345851391687	3
6	21369	2.346523391687	2
6	21595	2.348534813447	3
6	21620	2.348782813447	2
6	21813	2.350556154455	3
6	21833	2.350804154455	2
6	21855	2.350874154455	3
6	21898	2.351546154455	2
6	22171	2.353917185552	3
6	22226	2.354589185552	2
6	22665	2.358822875551	3
6	22695	2.359070875551	2
6	23031	2.362203905567	3
6	23086	2.362875905567	2
6	23202	2.363946914359	3
6	23232	2.364194914359	2
6	23523	2.36688833427	3
6	23543	2.36713633427	2
6	23559	2.36724633427	3
6	23613	2.36791833427	2
6	23735	2.368949343062	3
6	23760	2.369197343062	2
6	23782	2.369307343062	3
6	23830	2.369979343062	2
6	23884	2.370308351854	3
6	23938	2.370980351854	2
6	24054	2.372011360646	3
6	24085	2.372259360646	2
6	24096	2.372309360646	3
6	24150	2.372981360646	2
6	24811	2.379217317669	3
6	24841	2.379465317669	2
6	24852	2.379515317669	3
6	24906	2.380187317669	2
6	25573	2.386301413948	3
6	25599	2.386549413948	2
6	25683	2.38728242274	3
6	25703	2.38753042274	2
6	26004	2.390366109129	3
6	26030	2.390614109129	2
6	26046	2.390664109129	3
6	26095	2.391336109129	2
6	26357	2.393648995524	3
6	26412	2.394320995524	2
6	26791	2.397714867616	3
6	26839	2.398386867616	2
6	26961	2.399437876408	3
6	26992	2.399685876408	2
6	27216	2.401720101547	3
6	27264	2.402392101547	2
6	28133	2.410510731868	3
6	28158	2.410758731868	2
6	28169	2.410848731868	3
6	28223	2.411520731868	2
6	28350	2.41261174066	3
6	28381	2.41285974066	2
6	28454	2.413632749452	3
6	28485	2.413880749452	2
6	28496	2.413950749452	3
6	28550	2.414622749452	2
6	28821	2.41703216413	3
6	28875	2.41770416413	2
6	28997	2.418755172922	3
6	29022	2.419003172922	2
6	29153	2.420155789191	3
6	29197	2.420827789191	2
6	29432	2.42292106722	3
6	29456	2.42316906722	2
6	29536	2.423902076012	3
6	29561	2.424150076012	2
6	29582	2.424260076012	3
6	29632	2.424932076012	2
6	29748	2.425923084804	3
6	29778	2.426171084804	2
6	29789	2.426221084804	3
6	29843	2.426893084804	2
6	29891	2.427242093596	3
6	29945	2.427914093596	2
6	30388	2.432050044924	3
6	30419	2.432298044924	2
6	30543	2.433409373456	3
6	30597	2.434081373456	2
6	31142	2.43915505546	3
6	31168	2.43940305546	2
6	31184	2.43947305546	3
6	31233	2.44014505546	2
6	31681	2.444341005545	3
6	31712	2.444589005545	2
6	31940	2.446701938795	3
6	31994	2.447373938795	2
6	32456	2.452007216895	3
6	32486	2.452255216895	2
6	32566	2.453028225687	3
6	32596	2.453276225687	2
6	32717	2.454388840742	3
6	32771	2.455060840742	2
6	32893	2.456071849534	3
6	32912	2.456319849534	2
6	33037	2.457527801372	3
6	33091	2.458199801372	2
6	33218	2.459270810164	3
6	33237	2.459518810164	2
6	33361	2.460611425037	3
6	33416	2.461283425037	2
6	33585	2.462672749156	3
6	33641	2.463344749156	2
6	33687	2.463692749156	3
6	33742	2.464364749156	2
6	33847	2.465374835092	3
6	33866	2.465622835092	2
6	33992	2.46673544944	3
6	34063	2.46740744944	2
6	34108	2.46771544944	3
6	34156	2.46838744944	2
6	34425	2.470759127614	3
6	34474	2.471431127614	2
6	34601	2.472542136406	3
6	34626	2.472790136406	2
6	34711	2.473623145198	3
6	34741	2.473871145198	2
6	34752	2.473941145198	3
6	34807	2.474613145198	2
6	34860	2.47492215399	3
6	34908	2.47559415399	2
6	35036	2.476685162782	3
6	35061	2.476933162782	2
6	35251	2.478668439727	3
6	35276	2.478916439727	2
6	35361	2.479669448519	3
6	35380	2.479917448519	2
6	35459	2.480650457311	3
6	35490	2.480898457311	2
6	35614	2.48206640624	3
6	35657	2.48273840624	2
6	35716	2.483127415032	3
6	35770	2.483799415032	2
6	35994	2.485852691459	3
6	36025	2.486100691459	2
6	36036	2.486150691459	3
6	36084	2.486822691459	2
6	36248	2.488132011857	3
6	36296	2.488804011857	2
6	36463	2.490173419307	3
6	36506	2.490845419307	2
6	37062	2.495983228943	3
6	37088	2.496231228943	2
6	37104	2.496301228943	3
6	37158	2.496973228943	2
6	37274	2.497964237735	3
6	37300	2.498212237735	2
6	37426	2.499283556512	3
6	37474	2.499955556512	2
6	37596	2.501006565304	3
6	37627	2.501254565304	2
6	37846	2.503481795753	3
6	37901	2.504153795753	2
6	38245	2.50740520167	3
6	38275	2.50765320167	2
6	38388	2.508724519175	3
6	38443	2.509396519175	2
6	38570	2.510487527967	3
6	38589	2.510735527967	2
6	38605	2.510845527967	3
6	38660	2.511517527967	2
6	39004	2.51467080218	3
6	39029	2.51491880218	2
6	39045	2.51502880218	3
6	39100	2.51570080218	2
6	39331	2.517754076083	3
6	39350	2.518002076083	2
6	39479	2.519154684993	3
6	39529	2.519826684993	2
6	40080	2.524940354045	3
6	40104	2.525188354045	2
6	40126	2.525258354045	3
6	40169	2.525930354045	2
6	40508	2.529023627144	3
6	40539	2.529271627144	2
6	40612	2.530024635936	3
6	40643	2.530272635936	2
6	41265	2.535026828625	3
6	41315	2.535274828625	2
6	41326	2.535324828625	3
6	41407	2.535996828625	2
6	41488	2.536365837417	3
6	41573	2.537037837417	2
6	41800	2.53834715055	3
6	41864	2.53879515055	2
6	41886	2.53884515055	3
6	41964	2.53929315055	2
6	42253	2.540802767507	3
6	42293	2.541050767507	2
6	42780	2.543624029214	3
6	42830	2.543872029214	2
6	43018	2.544924635419	3
6	43108	2.545596635419	2
6	43464	2.547628037574	3
6	43515	2.547876037574	2
6	43526	2.547946037574	3
6	43628	2.548618037574	2
6	43716	2.548987046366	3
6	43817	2.549659046366	2
6	43997	2.550710055158	3
6	44049	2.550958055158	2
6	44060	2.551008055158	3
6	44161	2.551680055158	2
6	44404	2.552969366196	3
6	44484	2.553641366196	2
6	44577	2.554010374988	3
6	44688	2.554682374988	2
6	45453	2.559055291628	3
6	45544	2.559727291628	2
6	45811	2.561156601502	3
6	45908	2.561828601502	2
6	45976	2.562216601502	3
6	46077	2.562888601502	2
6	46848	2.567260563671	3
6	46927	2.567932563671	2
6	47014	2.568261572463	3
6	47105	2.568933572463	2
6	47170	2.569242581255	3
6	47271	2.569914581255	2
6	47358	2.570263590047	3
6	47449	2.570935590047	2
6	47630	2.571946598839	3
6	47681	2.572194598839	2
6	47878	2.573325907085	3
6	47967	2.573997907085	2
6	48325	2.576029306647	3
6	48377	2.576277306647	2
6	48388	2.576347306647	3
6	48489	2.577019306647	2
6	49084	2.580390690038	3
6	49193	2.581062690038	2
6	49606	2.58351030122	3
6	49707	2.58418230122	2
6	49910	2.585273310012	3
6	49939	2.585521310012	2
6	49960	2.585571310012	3
6	50051	2.586243310012	2
6	50231	2.587234318804	3
6	50283	2.587482318804	2
6	50294	2.587532318804	3
6	50395	2.588204318804	2
6	50652	2.589595308022	3
6	50763	2.590267308022	2
6	50950	2.591297697494	3
6	50979	2.591545697494	2
6	51113	2.59231963183	3
6	51164	2.59256763183	2
6	51291	2.593340640622	3
6	51331	2.593588640622	2
6	51364	2.593658640622	3
6	51443	2.594330640622	2
6	51530	2.594679649414	3
6	51621	2.595351649414	2
6	51809	2.596382861589	3
6	51851	2.596630861589	2
6	52216	2.598705720992	3
6	52317	2.599377720992	2
6	52497	2.600409025435	3
6	52549	2.600657025435	2
6	52560	2.600727025435	3
6	52661	2.601399025435	2
6	52841	2.602390329593	3
6	52883	2.602638329593	2
6	53017	2.60339154033	3
6	53047	2.60363954033	2
6	53080	2.60370954033	3
6	53169	2.60438154033	2
6	53523	2.606414434938	3
6	53575	2.606662434938	2
6	53586	2.606732434938	3
6	53687	2.607404434938	2
6	54209	2.610437422384	3
6	54261	2.610685422384	2
6	54282	2.610775422384	3
6	54373	2.611447422384	2
6	54624	2.612838021551	3
6	54733	2.613510021551	2
6	54804	2.613858021551	3
6	54895	2.614530021551	2
6	55427	2.61764141758	3
6	55479	2.61788941758	2
6	55490	2.61793941758	3
6	55591	2.61861141758	2
6	55771	2.619644016013	3
6	55823	2.619892016013	2
6	56022	2.620984614218	3
6	56123	2.621656614218	2
6	56301	2.622669212268	3
6	56342	2.622917212268	2
6	56456	2.623651142478	3
6	56506	2.623899142478	2
6	56528	2.623989142478	3
6	56629	2.624661142478	2
6	56821	2.625653740281	3
6	56851	2.625901740281	2
6	56985	2.626655670096	3
6	57026	2.626903670096	2
6	57207	2.628051599779	3
6	57308	2.628723599779	2
6	57395	2.629112608571	3
6	57496	2.629784608571	2
6	57674	2.630816537886	3
6	57725	2.631064537886	2
6	58089	2.633158723136	3
6	58180	2.633830723136	2
6	58380	2.634902651916	3
6	58409	2.635150651916	2
6	58544	2.635884580517	3
6	58585	2.636132580517	2
6	58722	2.636885589309	3
6	58752	2.637133589309	2
6	58951	2.638226185719	3
6	59052	2.638898185719	2
6	59117	2.639207194511	3
6	59218	2.639879194511	2
6	59295	2.640189122521	3
6	59396	2.640861122521	2
6	59750	2.642855973973	3
6	59779	2.643103973973	2
6	60321	2.646215752415	3
6	60422	2.646887752415	2
6	60607	2.647898761207	3
6	60649	2.648146761207	2
6	60670	2.648196761207	3
6	60771	2.648868761207	2
6	61126	2.650903611211	3
6	61155	2.651151611211	2
6	61177	2.651221611211	3
6	61278	2.651893611211	2
6	61974	2.655870806126	3
6	62014	2.656118806126	2
6	62151	2.656871814918	3
6	62181	2.657119814918	2
6	62203	2.657189814918	3
6	62303	2.657861814918	2
6	62496	2.65887282371	3
6	62525	2.65912082371	2
6	62547	2.65925082371	3
6	62648	2.65992282371	2
6	62838	2.660914749066	3
6	62877	2.661162749066	2
6	63014	2.661955757858	3
6	63057	2.662203757858	2
6	63078	2.662273757858	3
6	63169	2.662945757858	2
6	63256	2.663275682837	3
6	63335	2.663947682837	2
6	63701	2.666000276408	3
6	63742	2.666248276408	2
6	63774	2.666378276408	3
6	63865	2.667050276408	2
6	64065	2.66806147458	3
6	64095	2.66830947458	2
6	64231	2.669062483372	3
6	64273	2.669310483372	2
6	64800	2.672385998662	3
6	64901	2.673057998662	2
6	64978	2.673427922313	3
6	65087	2.674099922313	2
6	65137	2.674427922313	3
6	65238	2.675099922313	2
6	65604	2.677154098495	3
6	65645	2.677402098495	2
6	65667	2.677492098495	3
6	65768	2.678164098495	2
6	65946	2.679196690671	3
6	65987	2.679444690671	2
6	66353	2.681537664508	3
6	66462	2.682209664508	2
6	67311	2.687227090426	3
6	67363	2.687475090426	2
6	67384	2.687565090426	3
6	67475	2.688237090426	2
6	68172	2.692232314525	3
6	68223	2.692480314525	2
6	68357	2.693254235593	3
6	68386	2.693502235593	2
6	68408	2.693572235593	3
6	68499	2.694244235593	2
6	68586	2.694573428486	3
6	68665	2.695245428486	2
6	68865	2.69625829759	3
6	68907	2.69650629759	2
6	69207	2.698280887812	3
6	69248	2.698528887812	2
6	69434	2.699581477914	3
6	69535	2.700253477914	2
6	69703	2.701244669606	3
6	69755	2.701492669606	2
6	69891	2.702265678398	3
6	69933	2.702513678398	2
6	70298	2.704628518699	3
6	70399	2.705300518699	2
6	70755	2.707334055254	3
6	70795	2.707582055254	2
6	70806	2.707632055254	3
6	70907	2.708304055254	2
6	71097	2.709315245372	3
6	71137	2.709563245372	2
6	71170	2.709693245372	3
6	71259	2.710365245372	2
6	71336	2.710695164127	3
6	71437	2.711367164127	2
6	71858	2.713776374627	3
6	71937	2.714448374627	2
6	72137	2.715480292824	3
6	72178	2.715728292824	2
6	72200	2.715818292824	3
6	72301	2.716490292824	2
6	72366	2.716839301616	3
6	72467	2.717511301616	2
6	72657	2.718523219414	3
6	72696	2.718771219414	2
6	72708	2.718841219414	3
6	72809	2.719513219414	2
6	73058	2.72084408624	3
6	73173	2.72151608624	2
6	73362	2.722566186175	3
6	73391	2.722814186175	2
6	73525	2.723568103266	3
6	73566	2.723816103266	2
6	74382	2.728553888054	3
6	74412	2.728801888054	2
6	74724	2.730595174589	3
6	74754	2.730843174589	2
6	74787	2.730913174589	3
6	74878	2.731585174589	2
6	75067	2.73261709054	3
6	75118	2.73286509054	2
6	75140	2.73295509054	3
6	75219	2.73362709054	2
6	75306	2.733956275747	3
6	75406	2.734628275747	2
6	76107	2.738757274726	3
6	76149	2.739005274726	2
6	76170	2.739075274726	3
6	76261	2.739747274726	2
6	76441	2.740738283518	3
6	76493	2.740986283518	2
6	76504	2.741036283518	3
6	76605	2.741708283518	2
6	77376	2.746059622917	3
6	77455	2.746731622917	2
6	77542	2.747061536906	3
6	77633	2.747733536906	2
6	77810	2.748746392482	3
6	77862	2.748994392482	2
6	78229	2.751183918879	3
6	78330	2.751855918879	2
6	78571	2.753226875206	3
6	78672	2.753898875206	2
6	79028	2.755932400552	3
6	79080	2.756180400552	2
6	79091	2.756230400552	3
6	79192	2.756902400552	2
6	79370	2.757935253726	3
6	79422	2.758183253726	2
6	79713	2.759937837571	3
6	79763	2.760185837571	2
6	79785	2.760255837571	3
6	79876	2.760927837571	2
[...]
76	41240	2.534852966526	15
76	41311	2.535252966526	18
76	41378	2.535652966526	21
76	41445	2.536052966526	24
76	41514	2.536452966526	27
76	41562	2.536852966526	30
76	41630	2.537252966526	33
76	41698	2.537652966526	36
76	41767	2.538052966526	39
76	41836	2.538452966526	42
76	41912	2.538852966526	45
76	41961	2.539252966526	48
76	42038	2.539652966526	51
76	42105	2.540052966526	54
76	42174	2.540452966526	57
76	42279	2.540852966526	60
76	42350	2.541252966526	63
76	42401	2.541652966526	66
76	42478	2.542052966526	69
76	42543	2.542452966526	72
76	42613	2.542852966526	75
76	42684	2.543252966526	78
76	42806	2.543652966526	81
76	42879	2.544052966526	84
76	42932	2.544452966526	87
76	43003	2.544852966526	90
76	43075	2.545252966526	93
76	43148	2.545652966526	96
76	43221	2.546052966526	99
76	43274	2.546452966526	102
76	43345	2.546852966526	105
76	43417	2.547252966526	108
76	43490	2.547652966526	111
76	43563	2.548052966526	114
76	43616	2.548452966526	117
76	43691	2.548852966526	120
76	43762	2.549252966526	123
76	43815	2.549652966526	126
76	43908	2.550052966526	129
76	43961	2.550452966526	132
76	44034	2.550852966526	135
76	44107	2.551252966526	138
76	44159	2.551652966526	141
76	44252	2.552052966526	144
76	44305	2.552452966526	147
76	44378	2.552852966526	150
76	44451	2.553252966526	153
76	44523	2.553652966526	156
76	44605	2.554052966526	159
76	44657	2.554452966526	162
76	44732	2.554852966526	165
76	44805	2.555252966526	168
76	44858	2.555652966526	171
76	44951	2.556052966526	174
76	45003	2.556452966526	177
76	45074	2.556852966526	180
76	45147	2.557252966526	183
76	45200	2.557652966526	186
76	45293	2.558052966526	189
76	45345	2.558452966526	192
76	45416	2.558852966526	195
76	45489	2.559252966526	198
76	45541	2.559652966526	201
76	45625	2.560052966526	204
76	45685	2.560452966526	207
76	45758	2.560852966526	210
76	45839	2.561252966526	213
76	45891	2.561652966526	216
76	45960	2.562052966526	219
76	46022	2.562452966526	222
76	46075	2.562852966526	225
76	46168	2.563252966526	228
76	46221	2.563652966526	231
76	46292	2.564052966526	234
76	46364	2.564452966526	237
76	46417	2.564852966526	240
76	46510	2.565252966526	243
76	46562	2.565652966526	246
76	46634	2.566052966526	249
76	46706	2.566452966526	252
76	46759	2.566852966526	255
76	46844	2.567252966526	258
76	46904	2.567652966526	261
76	46978	2.568052966526	264
76	47050	2.568452966526	267
76	47103	2.568852966526	270
76	47196	2.569252966526	273
76	47248	2.569652966526	276
76	47322	2.570052966526	279
76	47394	2.570452966526	282
76	47447	2.570852966526	285
76	47532	2.571252966526	288
76	47592	2.571652966526	291
76	47666	2.572052966526	294
76	47738	2.572452966526	297
76	47790	2.572852966526	300
76	47874	2.573252966526	303
76	47934	2.573652966526	306
76	48007	2.574052966526	309
76	48080	2.574452966526	312
76	48132	2.574852966526	315
76	48207	2.575252966526	318
76	48278	2.575652966526	321
76	48351	2.576052966526	324
76	48424	2.576452966526	327
76	48476	2.576852966526	330
76	48551	2.577252966526	333
76	48622	2.577652966526	336
76	48693	2.578052966526	339
76	48766	2.578452966526	342
76	48818	2.578852966526	345
76	48892	2.579252966526	348
76	48964	2.579652966526	351
76	49017	2.580052966526	354
76	49118	2.580452966526	357
76	49170	2.580852966526	360
76	49236	2.581252966526	363
76	49300	2.581652966526	366
76	49353	2.582052966526	369
76	49436	2.582452966526	372
76	49496	2.582852966526	375
76	49570	2.583252966526	378
76	49642	2.583652966526	381
76	49695	2.584052966526	384
76	49780	2.584452966526	387
76	49840	2.584852966526	390
76	49893	2.585252966526	393
76	49986	2.585652966526	396
76	50039	2.586052966526	399
76	50112	2.586452966526	402
76	50184	2.586852966526	405
76	50257	2.587252966526	408
76	50330	2.587652966526	411
76	50383	2.588052966526	414
76	50457	2.588452966526	417
76	50528	2.588852966526	420
76	50599	2.589252966526	423
76	50680	2.589652966526	426
76	50732	2.590052966526	429
76	50808	2.590452966526	432
76	50880	2.590852966526	435
76	50934	2.591252966526	438
76	51026	2.591652966526	441
76	51078	2.592052966526	444
76	51107	2.59230963183	443
76	51150	2.592452966526	446
76	51222	2.592852966526	449
76	51275	2.593252966526	452
76	51360	2.593652966526	455
76	51420	2.594052966526	458
76	51494	2.594452966526	461
76	51566	2.594852966526	464
76	51618	2.595252966526	467
76	51704	2.595652966526	470
76	51764	2.596052966526	473
76	51805	2.596372861589	472
76	51835	2.596452966526	475
76	51908	2.596852966526	478
76	51961	2.597252966526	481
76	52046	2.597652966526	484
76	52106	2.598052966526	487
76	52179	2.598452966526	490
76	52252	2.598852966526	493
76	52305	2.599252966526	496
76	52390	2.599652966526	499
76	52450	2.600052966526	502
76	52523	2.600452966526	505
76	52596	2.600852966526	508
76	52648	2.601252966526	511
76	52723	2.601652966526	514
76	52794	2.602052966526	517
76	52867	2.602452966526	520
76	52940	2.602852966526	523
76	52992	2.603252966526	526
76	53013	2.60338154033	525
76	53076	2.603652966526	528
76	53136	2.604052966526	531
76	53209	2.604452966526	534
76	53282	2.604852966526	537
76	53334	2.605252966526	540
76	53418	2.605652966526	543
76	53478	2.606052966526	546
76	53519	2.606404434938	545
76	53549	2.606452966526	548
76	53622	2.606852966526	551
76	53674	2.607252966526	554
76	53749	2.607652966526	557
76	53820	2.608052966526	560
76	53893	2.608452966526	563
76	53966	2.608852966526	566
76	54018	2.609252966526	569
76	54091	2.609652966526	572
76	54162	2.610052966526	575
76	54235	2.610452966526	578
76	54308	2.610852966526	581
76	54360	2.611252966526	584
76	54433	2.611652966526	587
76	54506	2.612052966526	590
76	54571	2.612452966526	593
76	54658	2.612852966526	596
76	54710	2.613252966526	599
76	54776	2.613652966526	602
76	54840	2.614052966526	605
76	54893	2.614452966526	608
76	54978	2.614852966526	611
76	55038	2.615252966526	614
76	55112	2.615652966526	617
76	55184	2.616052966526	620
76	55237	2.616452966526	623
76	55320	2.616852966526	626
76	55380	2.617252966526	629
76	55453	2.617652966526	632
76	55526	2.618052966526	635
76	55579	2.618452966526	638
76	55653	2.618852966526	641
76	55724	2.619252966526	644
76	55797	2.619652966526	647
76	55870	2.620052966526	650
76	55923	2.620452966526	653
76	55997	2.620852966526	656
76	56068	2.621252966526	659
76	56121	2.621652966526	662
76	56214	2.622052966526	665
76	56267	2.622452966526	668
76	56295	2.622659212268	667
76	56338	2.622852966526	670
76	56410	2.623252966526	673
76	56450	2.623641142478	672
76	56482	2.623652966526	675
76	56554	2.624052966526	678
76	56606	2.624452966526	681
76	56680	2.624852966526	684
76	56752	2.625252966526	687
76	56819	2.625652966526	690
76	56898	2.626052966526	693
76	56950	2.626452966526	696
76	56969	2.626645670096	695
76	57022	2.626852966526	698
76	57102	2.627252966526	701
76	57155	2.627652966526	704
76	57233	2.628052966526	707
76	57285	2.628452966526	710
76	57358	2.628852966526	713
76	57431	2.629252966526	716
76	57484	2.629652966526	719
76	57569	2.630052966526	722
76	57629	2.630452966526	725
76	57668	2.630806537886	724
76	57700	2.630852966526	727
76	57773	2.631252966526	730
76	57825	2.631652966526	733
76	57898	2.632052966526	736
76	57969	2.632452966526	739
76	58042	2.632852966526	742
76	58115	2.633252966526	745
76	58168	2.633652966526	748
76	58242	2.634052966526	751
76	58313	2.634452966526	754
76	58366	2.634852966526	757
76	58374	2.634892651916	756
76	58457	2.635252966526	759
76	58510	2.635652966526	762
76	58538	2.635874580517	761
76	58581	2.636052966526	764
76	58653	2.636452966526	767
76	58706	2.636852966526	770
76	58799	2.637252966526	773
76	58851	2.637652966526	776
76	58925	2.638052966526	779
76	58997	2.638452966526	782
76	59050	2.638852966526	785
76	59143	2.639252966526	788
76	59195	2.639652966526	791
76	59269	2.640052966526	794
76	59341	2.640452966526	797
76	59394	2.640852966526	800
76	59487	2.641252966526	803
76	59539	2.641652966526	806
76	59610	2.642052966526	809
76	59683	2.642452966526	812
76	59722	2.642845973973	811
76	59748	2.642852966526	814
76	59827	2.643252966526	817
76	59879	2.643652966526	820
76	59952	2.644052966526	823
76	60025	2.644452966526	826
76	60077	2.644852966526	829
76	60171	2.645252966526	832
76	60223	2.645652966526	835
76	60294	2.646052966526	838
76	60367	2.646452966526	841
76	60419	2.646852966526	844
76	60518	2.647252966526	847
76	60570	2.647652966526	850
76	60643	2.648052966526	853
76	60716	2.648452966526	856
76	60769	2.648852966526	859
76	60863	2.649252966526	862
76	60915	2.649652966526	865
76	60986	2.650052966526	868
76	61059	2.650452966526	871
76	61111	2.650852966526	874
76	61120	2.650893611211	873
76	61203	2.651252966526	876
76	61255	2.651652966526	879
76	61328	2.652052966526	882
76	61401	2.652452966526	885
76	61454	2.652852966526	888
76	61545	2.653252966526	891
76	61597	2.653652966526	894
76	61670	2.654052966526	897
76	61743	2.654452966526	900
76	61795	2.654852966526	903
76	61887	2.655252966526	906
76	61939	2.655652966526	909
76	61967	2.655860806126	908
76	62010	2.656052966526	911
76	62083	2.656452966526	914
76	62135	2.656852966526	917
76	62229	2.657252966526	920
76	62281	2.657652966526	923
76	62354	2.658052966526	926
76	62427	2.658452966526	929
76	62479	2.658852966526	932
76	62573	2.659252966526	935
76	62625	2.659652966526	938
76	62698	2.660052966526	941
76	62771	2.660452966526	944
76	62823	2.660852966526	947
76	62832	2.660904749066	946
76	62907	2.661252966526	949
76	62967	2.661652966526	952
76	63041	2.662052966526	955
76	63114	2.662452966526	958
76	63166	2.662852966526	961
76	63252	2.663252966526	964
76	63312	2.663652966526	967
76	63385	2.664052966526	970
76	63458	2.664452966526	973
76	63510	2.664852966526	976
76	63596	2.665252966526	979
76	63656	2.665652966526	982
76	63695	2.665990276408	981
76	63727	2.666052966526	984
76	63800	2.666452966526	987
76	63852	2.666852966526	990
76	63926	2.667252966526	993
76	63998	2.667652966526	996
76	64039	2.66805147458	995
76	64063	2.668052966526	998
76	64142	2.668452966526	1001
76	64194	2.668852966526	1004
76	64268	2.669252966526	1007
76	64340	2.669652966526	1010
76	64393	2.670052966526	1013
76	64486	2.670452966526	1016
76	64538	2.670852966526	1019
76	64610	2.671252966526	1022
76	64682	2.671652966526	1025
76	64735	2.672052966526	1028
76	64826	2.672452966526	1031
76	64878	2.672852966526	1034
76	64952	2.673252966526	1037
76	65032	2.673652966526	1040
76	65085	2.674052966526	1043
76	65163	2.674452966526	1046
76	65215	2.674852966526	1049
76	65289	2.675252966526	1052
76	65361	2.675652966526	1055
76	65414	2.676052966526	1058
76	65499	2.676452966526	1061
76	65559	2.676852966526	1064
76	65588	2.677144098495	1063
76	65630	2.677252966526	1066
76	65703	2.677652966526	1069
76	65756	2.678052966526	1072
76	65841	2.678452966526	1075
76	65901	2.678852966526	1078
76	65940	2.679186690671	1077
76	65972	2.679252966526	1080
76	66045	2.679652966526	1083
76	66097	2.680052966526	1086
76	66172	2.680452966526	1089
76	66243	2.680852966526	1092
76	66316	2.681252966526	1095
76	66397	2.681652966526	1098
76	66449	2.682052966526	1101
76	66517	2.682452966526	1104
76	66580	2.682852966526	1107
76	66653	2.683252966526	1110
76	66726	2.683652966526	1113
76	66778	2.684052966526	1116
76	66851	2.684452966526	1119
76	66922	2.684852966526	1122
76	66993	2.685252966526	1125
76	67066	2.685652966526	1128
76	67118	2.686052966526	1131
76	67193	2.686452966526	1134
76	67264	2.686852966526	1137
76	67337	2.687252966526	1140
76	67410	2.687652966526	1143
76	67462	2.688052966526	1146
76	67536	2.688452966526	1149
76	67608	2.688852966526	1152
76	67679	2.689252966526	1155
76	67752	2.689652966526	1158
76	67804	2.690052966526	1161
76	67876	2.690452966526	1164
76	67948	2.690852966526	1167
76	68019	2.691252966526	1170
76	68092	2.691652966526	1173
76	68144	2.692052966526	1176
76	68219	2.692452966526	1179
76	68290	2.692852966526	1182
76	68329	2.693244235593	1181
76	68355	2.693252966526	1184
76	68434	2.693652966526	1187
76	68486	2.694052966526	1190
76	68559	2.694452966526	1193
76	68632	2.694852966526	1196
76	68699	2.695252966526	1199
76	68778	2.695652966526	1202
76	68830	2.696052966526	1205
76	68851	2.69624829759	1204
76	68901	2.696452966526	1207
76	68974	2.696852966526	1210
76	69041	2.697252966526	1213
76	69120	2.697652966526	1216
76	69172	2.698052966526	1219
76	69201	2.698270887812	1218
76	69243	2.698452966526	1221
76	69316	2.698852966526	1224
76	69373	2.699252966526	1227
76	69460	2.699652966526	1230
76	69512	2.700052966526	1233
76	69585	2.700452966526	1236
76	69658	2.700852966526	1239
76	69699	2.701234669606	1238
76	69729	2.701252966526	1241
76	69802	2.701652966526	1244
76	69854	2.702052966526	1247
76	69927	2.702452966526	1250
76	70000	2.702852966526	1253
76	70053	2.703252966526	1256
76	70146	2.703652966526	1259
76	70198	2.704052966526	1262
76	70271	2.704452966526	1265
76	70344	2.704852966526	1268
76	70397	2.705252966526	1271
76	70490	2.705652966526	1274
76	70542	2.706052966526	1277
76	70613	2.706452966526	1280
76	70686	2.706852966526	1283
76	70739	2.707252966526	1286
76	70832	2.707652966526	1289
76	70884	2.708052966526	1292
76	70957	2.708452966526	1295
76	71030	2.708852966526	1298
76	71082	2.709252966526	1301
76	71093	2.709305245372	1300
76	71166	2.709652966526	1303
76	71226	2.710052966526	1306
76	71299	2.710452966526	1309
76	71372	2.710852966526	1312
76	71425	2.711252966526	1315
76	71510	2.711652966526	1318
76	71578	2.712052966526	1321
76	71643	2.712452966526	1324
76	71708	2.712852966526	1327
76	71760	2.713252966526	1330
76	71832	2.713652966526	1333
76	71904	2.714052966526	1336
76	71971	2.714452966526	1339
76	72050	2.714852966526	1342
76	72102	2.715252966526	1345
76	72131	2.715470292824	1344
76	72174	2.715652966526	1347
76	72246	2.716052966526	1350
76	72299	2.716452966526	1353
76	72392	2.716852966526	1356
76	72444	2.717252966526	1359
76	72518	2.717652966526	1362
76	72590	2.718052966526	1365
76	72643	2.718452966526	1368
76	72651	2.718513219414	1367
76	72734	2.718852966526	1370
76	72786	2.719252966526	1373
76	72860	2.719652966526	1376
76	72932	2.720052966526	1379
76	72985	2.720452966526	1382
76	73094	2.720852966526	1385
76	73146	2.721252966526	1388
76	73216	2.721652966526	1391
76	73282	2.722052966526	1394
76	73336	2.722452966526	1397
76	73420	2.722852966526	1400
76	73480	2.723252966526	1403
76	73519	2.723558103266	1402
76	73551	2.723652966526	1405
76	73632	2.724052966526	1408
76	73685	2.724452966526	1411
76	73755	2.724852966526	1414
76	73815	2.725252966526	1417
76	73888	2.725652966526	1420
76	73961	2.726052966526	1423
76	74013	2.726452966526	1426
76	74099	2.726852966526	1429
76	74159	2.727252966526	1432
76	74232	2.727652966526	1435
76	74305	2.728052966526	1438
76	74357	2.728452966526	1441
76	74368	2.728543888054	1440
76	74441	2.728852966526	1443
76	74501	2.729252966526	1446
76	74572	2.729652966526	1449
76	74645	2.730052966526	1452
76	74697	2.730452966526	1455
76	74783	2.730852966526	1458
76	74843	2.731252966526	1461
76	74918	2.731652966526	1464
76	74990	2.732052966526	1467
76	75042	2.732452966526	1470
76	75061	2.73260709054	1469
76	75115	2.732852966526	1472
76	75186	2.733252966526	1475
76	75259	2.733652966526	1478
76	75340	2.734052966526	1481
76	75392	2.734452966526	1484
76	75460	2.734852966526	1487
76	75522	2.735252966526	1490
76	75575	2.735652966526	1493
76	75668	2.736052966526	1496
76	75720	2.736452966526	1499
76	75792	2.736852966526	1502
76	75864	2.737252966526	1505
76	75917	2.737652966526	1508
76	76002	2.738052966526	1511
76	76062	2.738452966526	1514
76	76093	2.738747274726	1513
76	76134	2.738852966526	1516
76	76206	2.739252966526	1519
76	76259	2.739652966526	1522
76	76344	2.740052966526	1525
76	76404	2.740452966526	1528
76	76478	2.740852966526	1531
76	76550	2.741252966526	1534
76	76603	2.741652966526	1537
76	76696	2.742052966526	1540
76	76748	2.742452966526	1543
76	76821	2.742852966526	1546
76	76894	2.743252966526	1549
76	76947	2.743652966526	1552
76	77038	2.744052966526	1555
76	77090	2.744452966526	1558
76	77162	2.744852966526	1561
76	77234	2.745252966526	1564
76	77286	2.745652966526	1567
76	77372	2.746052966526	1570
76	77432	2.746452966526	1573
76	77505	2.746852966526	1576
76	77578	2.747252966526	1579
76	77630	2.747652966526	1582
76	77716	2.748052966526	1585
76	77776	2.748452966526	1588
76	77804	2.748736392482	1587
76	77848	2.748852966526	1590
76	77929	2.749252966526	1593
76	77981	2.749652966526	1596
76	78051	2.750052966526	1599
76	78111	2.750452966526	1602
76	78164	2.750852966526	1605
76	78255	2.751252966526	1608
76	78307	2.751652966526	1611
76	78381	2.752052966526	1614
76	78453	2.752452966526	1617
76	78506	2.752852966526	1620
76	78597	2.753252966526	1623
76	78649	2.753652966526	1626
76	78723	2.754052966526	1629
76	78795	2.754452966526	1632
76	78848	2.754852966526	1635
76	78939	2.755252966526	1638
76	78991	2.755652966526	1641
76	79065	2.756052966526	1644
76	79137	2.756452966526	1647
76	79190	2.756852966526	1650
76	79281	2.757252966526	1653
76	79335	2.757652966526	1656
76	79366	2.757925253726	1655
76	79407	2.758052966526	1658
76	79479	2.758452966526	1661
76	79532	2.758852966526	1664
76	79617	2.759252966526	1667
76	79677	2.759652966526	1670
76	79707	2.759927837571	1669
76	79749	2.760052966526	1672
76	79821	2.760452966526	1675
76	79873	2.760852966526	1678
76	79959	2.761252966526	1681
76	80019	2.761652966526	1684
76	80050	2.761950689705	1683
76	80091	2.762052966526	1686
76	80164	2.762452966526	1689
76	80216	2.762852966526	1692
76	80300	2.763252966526	1695
76	80360	2.763652966526	1698
76	80433	2.764052966526	1701
76	80506	2.764452966526	1704
76	80558	2.764852966526	1707
76	80644	2.765252966526	1710
76	80704	2.765652966526	1713
76	80777	2.766052966526	1716
76	80850	2.766452966526	1719
76	80902	2.766852966526	1722
76	80921	2.766997132877	1721
76	80975	2.767252966526	1724
76	81046	2.767652966526	1727
76	81119	2.768052966526	1730
76	81192	2.768452966526	1733
76	81244	2.768852966526	1736
76	81319	2.769252966526	1739
76	81390	2.769652966526	1742
76	81429	2.770019988215	1741
76	81461	2.770052966526	1744
76	81542	2.770452966526	1747
76	81594	2.770852966526	1750
76	81662	2.771252966526	1753
76	81724	2.771652966526	1756
76	81777	2.772052966526	1759
76	81785	2.772098837869	1758
76	81868	2.772452966526	1761
76	81920	2.772852966526	1764
76	81994	2.773252966526	1767
76	82066	2.773652966526	1770
76	82119	2.774052966526	1773
76	82129	2.774101686863	1772
76	82210	2.774452966526	1775
76	82262	2.774852966526	1778
76	82293	2.77508286408	1777
76	82334	2.775252966526	1780
76	82406	2.775652966526	1783
76	82459	2.776052966526	1786
76	82552	2.776452966526	1789
76	82604	2.776852966526	1792
76	82677	2.777252966526	1795
76	82750	2.777652966526	1798
76	82803	2.778052966526	1801
76	82896	2.778452966526	1804
76	82948	2.778852966526	1807
76	83032	2.779252966526	1810
76	83105	2.779652966526	1813
76	83158	2.780052966526	1816
76	83249	2.780452966526	1819
76	83301	2.780852966526	1822
76	83373	2.781252966526	1825
76	83445	2.781652966526	1828
76	83497	2.782052966526	1831
76	83591	2.782452966526	1834
76	83643	2.782852966526	1837
76	83716	2.783252966526	1840
76	83789	2.783652966526	1843
76	83841	2.784052966526	1846
76	83935	2.784452966526	1849
77	51107	2.59230963183	1
77	51805	2.596372861589	2
77	53013	2.60338154033	3
77	53519	2.606404434938	4
77	56295	2.622659212268	5
77	56450	2.623641142478	6
77	56969	2.626645670096	7
77	57668	2.630806537886	8
77	58374	2.634892651916	9
77	58538	2.635874580517	10
77	59722	2.642845973973	11
77	61120	2.650893611211	12
77	61967	2.655860806126	13
77	62832	2.660904749066	14
77	63695	2.665990276408	15
77	64039	2.66805147458	16
77	65588	2.677144098495	17
77	65940	2.679186690671	18
77	68329	2.693244235593	19
77	68851	2.69624829759	20
77	69201	2.698270887812	21
77	69699	2.701234669606	22
77	71093	2.709305245372	23
77	72131	2.715470292824	24
77	72651	2.718513219414	25
77	73519	2.723558103266	26
77	74368	2.728543888054	27
77	75061	2.73260709054	28
77	76093	2.738747274726	29
77	77804	2.748736392482	30
77	79366	2.757925253726	31
77	79707	2.759927837571	32
77	80050	2.761950689705	33
77	80921	2.766997132877	34
77	81429	2.770019988215	35
77	81785	2.772098837869	36
77	82129	2.774101686863	37
77	82293	2.77508286408	38
78	61808	2.654879843149	0.007988149739
79	82952	2.77894100455	84
79	82956	2.77894100455	84
80	82952	2.77894100455	84
80	82956	2.77894100455	84

